12
Properties=species:S:1:pos:R:3 frame=T 0=T |=T Written=T by=T MDAnalysis=T XYZWriter=T (release=T 2.0.0)=T pbc="F F F"
H       -3.73669000      18.70041000     -11.21003000
O       -3.71608000      18.16563000     -10.42805000
H       -4.20611000      18.74406000      -9.83645000
H       -2.39260000      14.02931000      -9.18943000
O       -3.04187000      14.27813000      -9.88440000
H       -3.19724000      13.42010000     -10.30527000
H       -3.06506000      16.54943000     -11.52100000
O       -3.02358000      15.87564000     -12.21828000
H       -2.96505000      15.04284000     -11.72819000
H       -2.08411000      15.30099000     -14.00754000
O       -2.07332000      14.53644000     -14.61253000
H       -1.80813000      14.93671000     -15.43293000
