12
Properties=species:S:1:pos:R:3 frame=T 13=T |=T Written=T by=T MDAnalysis=T XYZWriter=T (release=T 2.0.0)=T pbc="F F F"
H       -6.63171000      13.72903000      -8.18574000
O       -6.63940000      13.14448000      -7.41664000
H       -5.67273000      12.96653000      -7.33348000
H       -5.11311000      11.14751000      -6.21026000
O       -5.61068000      10.30310000      -6.09124000
H       -4.92049000       9.65306000      -6.26700000
H       -3.84807000      13.32026000      -6.63590000
O       -4.15673000      12.60157000      -7.24117000
H       -3.71517000      12.85873000      -8.05075000
H       -6.30251000      10.65983000      -8.20212000
O       -6.03341000      10.55871000      -9.10068000
H       -5.31931000      11.23043000      -9.18902000
