12
Properties=species:S:1:pos:R:3 frame=T 4=T |=T Written=T by=T MDAnalysis=T XYZWriter=T (release=T 2.0.0)=T pbc="F F F"
H       11.37710000      11.89234000     -18.55967000
O       11.29050000      12.49684000     -17.79232000
H       12.03542000      12.23361000     -17.22729000
H        8.89510000      11.39179000     -17.45303000
O        8.83250000      10.46790000     -17.65801000
H        8.20382000      10.08783000     -17.00544000
H        9.87771000       9.26541000     -18.65185000
O       10.03672000       8.32893000     -18.84346000
H       10.51974000       8.03017000     -18.05304000
H       11.76690000       9.23214000     -16.30064000
O       11.11958000       9.14547000     -15.60024000
H       10.89054000      10.07197000     -15.39762000
