12
Properties=species:S:1:pos:R:3 frame=T 18=T |=T Written=T by=T MDAnalysis=T XYZWriter=T (release=T 2.0.0)=T pbc="F F F"
H        0.99625000     -18.13981000       6.46251000
O        1.76423000     -18.75306000       6.54902000
H        1.90992000     -19.06501000       5.65711000
H        2.67599000     -13.58283000       2.95972000
O        2.38863000     -14.41456000       3.33917000
H        3.23040000     -14.91919000       3.32317000
H       -0.81463000     -18.69035000       2.79309000
O        0.12437000     -18.64178000       2.93987000
H        0.27628000     -17.68718000       2.90850000
H        2.71306000     -17.70574000       3.67534000
O        3.43175000     -17.07062000       3.88374000
H        3.91818000     -17.47349000       4.56139000
