12
Properties=species:S:1:pos:R:3 frame=T 8=T |=T Written=T by=T MDAnalysis=T XYZWriter=T (release=T 2.0.0)=T pbc="F F F"
H       -0.24779000      10.66627000     -10.05497000
O       -0.48782000       9.75579000     -10.18284000
H       -1.05129000       9.81503000     -10.98268000
H        0.25764000       9.76608000     -13.63662000
O        0.52168000       9.05558000     -13.05979000
H        0.89822000       9.52038000     -12.28925000
H        1.10801000       9.01601000     -10.28584000
O        2.06984000       8.90817000     -10.17095000
H        2.49966000       9.58249000     -10.75232000
H        0.66503000       6.71444000     -11.00183000
O       -0.28864000       6.61451000     -10.97941000
H       -0.59481000       7.01436000     -11.82264000
