12
Properties=species:S:1:pos:R:3 frame=T 4=T |=T Written=T by=T MDAnalysis=T XYZWriter=T (release=T 2.0.0)=T pbc="F F F"
H      -17.27522000       5.31763000       7.35139000
O      -18.23850000       5.10583000       7.21016000
H      -18.48231000       5.65995000       6.46684000
H      -17.13828000       7.29122000       4.56851000
O      -16.27217000       6.89494000       4.42539000
H      -15.72911000       7.65012000       4.04081000
H      -18.65270000       7.59407000       8.57237000
O      -18.46781000       8.25817000       7.92062000
H      -18.59208000       9.12870000       8.37229000
H      -16.73087000       3.32648000       5.00052000
O      -17.07128000       2.84645000       5.79407000
H      -17.43696000       3.61072000       6.30140000
