12
Properties=species:S:1:pos:R:3 frame=T 9=T |=T Written=T by=T MDAnalysis=T XYZWriter=T (release=T 2.0.0)=T pbc="F F F"
H        7.45270000       6.49897000       7.76960000
O        8.40368000       6.43454000       7.97579000
H        8.55748000       7.17828000       8.59425000
H        6.75942000       3.83131000       8.74372000
O        6.04101000       4.38443000       9.09631000
H        5.36996000       3.72790000       9.32790000
H        7.33037000       6.78024000      10.72006000
O        6.63651000       6.66929000      11.40165000
H        5.83625000       6.59561000      10.88295000
H        5.37127000       7.66544000       8.03742000
O        5.57057000       6.77409000       7.80731000
H        5.52994000       6.26528000       8.61014000
