12
Properties=species:S:1:pos:R:3 frame=T 7=T |=T Written=T by=T MDAnalysis=T XYZWriter=T (release=T 2.0.0)=T pbc="F F F"
H        8.76733000     -11.09191000      17.44815000
O        8.36431000     -11.98432000      17.51823000
H        8.47843000     -12.31134000      16.62250000
H        7.68132000      -5.03524000      17.79206000
O        8.56576000      -5.37890000      17.60761000
H        8.59991000      -5.62482000      16.65829000
H        9.69733000      -7.36695000      18.57438000
O        9.08334000      -7.88297000      18.02112000
H        8.58517000      -7.15576000      17.58298000
H        9.80416000      -9.13087000      17.08202000
O        9.84824000     -10.00469000      16.62523000
H       10.59862000      -9.82575000      16.07261000
