12
Properties=species:S:1:pos:R:3 frame=T 11=T |=T Written=T by=T MDAnalysis=T XYZWriter=T (release=T 2.0.0)=T pbc="F F F"
H        3.55936000      17.65234000      17.00156000
O        2.62579000      17.43401000      17.13176000
H        2.54110000      16.73357000      16.44785000
H        2.18897000      14.19809000      16.22206000
O        2.18398000      13.58034000      16.96317000
H        1.52078000      13.96959000      17.49143000
H        1.93483000      16.10318000      14.25110000
O        1.94179000      15.72577000      15.13375000
H        1.00337000      15.80937000      15.35909000
H        0.03431000      13.75498000      15.37752000
O        0.27382000      13.47287000      14.51877000
H        0.69322000      14.27137000      14.22022000
