12
Properties=species:S:1:pos:R:3 frame=T 13=T |=T Written=T by=T MDAnalysis=T XYZWriter=T (release=T 2.0.0)=T pbc="F F F"
H       10.26235000     -14.56079000       6.15227000
O       10.34715000     -14.83466000       5.23814000
H        9.85311000     -14.12677000       4.75327000
H        9.13981000     -15.97271000       6.47450000
O        8.60442000     -16.77266000       6.26562000
H        9.12274000     -17.29041000       5.61196000
H        7.43306000     -15.51679000       5.20745000
O        7.33733000     -15.16652000       4.32179000
H        8.17696000     -15.38370000       3.84314000
H       11.78459000     -13.98264000       4.84695000
O       12.36686000     -13.24250000       4.58425000
H       12.83248000     -12.98681000       5.37251000
