12
Properties=species:S:1:pos:R:3 frame=T 25=T |=T Written=T by=T MDAnalysis=T XYZWriter=T (release=T 2.0.0)=T pbc="F F F"
H      -12.90727000       8.80999000     -18.23921000
O      -13.50567000       8.36816000     -17.62015000
H      -13.98114000       9.05613000     -17.16104000
H      -18.17840000      11.68436000     -16.45899000
O      -17.93574000      10.87669000     -15.99262000
H      -17.48645000      10.33274000     -16.67929000
H      -15.26532000      12.85234000     -17.07333000
O      -14.85898000      12.28508000     -17.74884000
H      -14.28288000      12.89221000     -18.26077000
H      -16.14552000       9.79915000     -19.27960000
O      -16.65639000      10.50407000     -18.82909000
H      -15.96057000      11.06230000     -18.44394000
