12
Properties=species:S:1:pos:R:3 frame=T 17=T |=T Written=T by=T MDAnalysis=T XYZWriter=T (release=T 2.0.0)=T pbc="F F F"
H       17.59076000       9.50491000      12.63276000
O       16.62490000       9.70121000      12.60292000
H       16.60281000      10.26187000      11.79923000
H       17.90255000       7.36797000       9.55886000
O       17.18426000       6.73629000       9.62275000
H       17.36460000       6.24055000      10.40583000
H       17.83108000      13.20623000       8.37633000
O       18.31582000      12.45058000       8.09436000
H       17.99806000      11.73089000       8.61532000
H       17.72730000      11.20930000      10.96603000
O       17.33395000      10.66623000      10.25910000
H       18.04656000      10.05244000      10.05573000
