12
Properties=species:S:1:pos:R:3 frame=T 24=T |=T Written=T by=T MDAnalysis=T XYZWriter=T (release=T 2.0.0)=T pbc="F F F"
H       -0.84686000       3.68132000      -2.03932000
O       -1.73200000       3.97409000      -1.84250000
H       -1.80563000       4.09467000      -0.89373000
H        0.36400000       5.17377000      -2.22981000
O        0.22307000       6.00075000      -2.73792000
H        0.64240000       6.67974000      -2.20101000
H        0.58344000       2.21405000      -2.27384000
O        0.79185000       2.97072000      -2.81348000
H        1.09638000       2.53046000      -3.60408000
H        2.55512000       4.89202000      -0.85680000
O        1.81021000       4.67683000      -0.27668000
H        1.83353000       3.71194000      -0.20954000
