12
Properties=species:S:1:pos:R:3 frame=T 19=T |=T Written=T by=T MDAnalysis=T XYZWriter=T (release=T 2.0.0)=T pbc="F F F"
H        8.52828000     -10.82857000      -5.28336000
O        8.67897000     -11.49643000      -5.95325000
H        8.29918000     -12.32120000      -5.61736000
H        9.65498000     -13.62005000      -3.41245000
O        9.21867000     -13.52693000      -4.25518000
H        8.44522000     -14.12676000      -4.11061000
H       10.41186000     -12.38221000      -6.14466000
O       11.28665000     -12.80813000      -6.09917000
H       11.09018000     -13.57571000      -5.53601000
H        9.47504000     -11.69125000      -2.53863000
O        9.08326000     -10.86054000      -2.21987000
H        9.18419000     -10.25889000      -2.96154000
