12
Properties=species:S:1:pos:R:3 frame=T 16=T |=T Written=T by=T MDAnalysis=T XYZWriter=T (release=T 2.0.0)=T pbc="F F F"
H       18.00846000       0.95848000      12.75253000
O       17.24209000       1.49592000      12.87777000
H       16.72094000       1.28486000      12.10673000
H       17.94510000      -0.01524000      14.79343000
O       17.69413000      -0.88054000      14.45422000
H       17.46345000      -1.35329000      15.28172000
H       16.42106000      -0.39885000      11.67381000
O       17.07824000      -1.06356000      11.90210000
H       17.32187000      -0.85685000      12.81086000
H       15.15398000       1.04585000      16.19147000
O       15.10930000       0.85333000      15.25675000
H       15.75286000       0.12687000      15.11157000
