12
Properties=species:S:1:pos:R:3 frame=T 2=T |=T Written=T by=T MDAnalysis=T XYZWriter=T (release=T 2.0.0)=T pbc="F F F"
H       15.75704000      17.08054000      16.51969000
O       15.06950000      17.37903000      15.90409000
H       14.30116000      17.59695000      16.49936000
H       16.98594000      17.55513000      18.01504000
O       17.54327000      16.97522000      17.50874000
H       17.75125000      16.26580000      18.14375000
H       14.94950000      15.84787000      18.41699000
O       15.64612000      15.13907000      18.43127000
H       15.23022000      14.42455000      17.93488000
H       18.97822000      14.58501000      14.43654000
O       19.28217000      15.47488000      14.19242000
H       18.46115000      15.88132000      13.88225000
