12
Properties=species:S:1:pos:R:3 frame=T 19=T |=T Written=T by=T MDAnalysis=T XYZWriter=T (release=T 2.0.0)=T pbc="F F F"
H      -12.99049000     -14.29284000       2.96500000
O      -13.51714000     -13.98069000       2.24832000
H      -12.95882000     -13.35378000       1.79670000
H      -14.33806000     -11.48212000       5.25838000
O      -13.45625000     -11.85759000       5.08827000
H      -12.96130000     -11.49868000       5.85668000
H      -10.74560000     -11.86347000       4.01364000
O      -10.96275000     -12.79364000       3.84571000
H      -11.71593000     -12.92699000       4.44770000
H      -12.34419000     -16.03242000       4.34279000
O      -12.33171000     -15.05079000       4.58357000
H      -13.05127000     -14.96667000       5.22950000
