12
Properties=species:S:1:pos:R:3 frame=T 5=T |=T Written=T by=T MDAnalysis=T XYZWriter=T (release=T 2.0.0)=T pbc="F F F"
H       13.68065000       9.47145000       3.61865000
O       13.30321000      10.31306000       3.85019000
H       12.36842000      10.17779000       3.85691000
H       13.48981000      12.62652000       6.11938000
O       13.76816000      13.17700000       5.35587000
H       14.71821000      13.10746000       5.31364000
H       15.81437000       9.61291000       4.68809000
O       15.64302000       9.29488000       5.57259000
H       15.67112000       8.32978000       5.54520000
H       15.27478000      11.38623000       3.76597000
O       16.13244000      11.08500000       3.47633000
H       16.51628000      11.93955000       3.17881000
