12
Properties=species:S:1:pos:R:3 frame=T 15=T |=T Written=T by=T MDAnalysis=T XYZWriter=T (release=T 2.0.0)=T pbc="F F F"
H       13.72113000      18.63943000     -16.01076000
O       12.92325000      18.14452000     -15.77108000
H       12.57445000      18.68881000     -15.06755000
H       13.07893000      16.35263000     -16.42776000
O       13.31178000      15.42235000     -16.44944000
H       13.54513000      15.35033000     -17.38959000
H       14.06882000      17.11056000     -12.80523000
O       14.06795000      18.07314000     -12.79421000
H       13.25901000      18.34412000     -13.23860000
H        9.38201000      18.33840000     -14.07353000
O        9.30497000      18.72146000     -13.21105000
H        9.07137000      17.91684000     -12.70604000
