12
Properties=species:S:1:pos:R:3 frame=T 0=T |=T Written=T by=T MDAnalysis=T XYZWriter=T (release=T 2.0.0)=T pbc="F F F"
H       12.03455000      -1.34192000      10.68688000
O       11.57190000      -0.54312000      10.41080000
H       11.62780000       0.05029000      11.16837000
H        9.12786000      -2.45130000       9.69036000
O        9.57656000      -2.77437000      10.47925000
H       10.09973000      -2.02623000      10.77998000
H       11.54865000      -3.57733000      10.31783000
O       12.45252000      -3.22693000      10.39083000
H       12.96876000      -3.99902000      10.65322000
H       12.82443000      -2.76499000      13.81388000
O       12.58503000      -2.10001000      13.17437000
H       12.67546000      -2.48367000      12.26590000
