12
Properties=species:S:1:pos:R:3 frame=T 1=T |=T Written=T by=T MDAnalysis=T XYZWriter=T (release=T 2.0.0)=T pbc="F F F"
H      -16.54064000      15.22841000      -7.41001000
O      -16.71970000      15.02020000      -8.33832000
H      -15.98791000      14.44436000      -8.52208000
H      -18.78265000      17.36723000      -6.31933000
O      -17.86902000      17.24294000      -6.02474000
H      -17.41861000      17.98454000      -6.44776000
H      -17.31047000      16.68143000      -8.69455000
O      -17.58285000      17.53863000      -9.09545000
H      -18.39764000      17.75362000      -8.60192000
H      -13.77732000      16.69619000      -9.79726000
O      -13.17584000      17.30212000      -9.36711000
H      -12.41903000      16.75798000      -9.10109000
