12
Properties=species:S:1:pos:R:3 frame=T 1=T |=T Written=T by=T MDAnalysis=T XYZWriter=T (release=T 2.0.0)=T pbc="F F F"
H        0.39540000      -4.77312000      -8.63124000
O       -0.53913000      -4.75711000      -8.88397000
H       -0.94929000      -4.69769000      -8.00233000
H        0.95776000      -4.49032000     -12.11251000
O        0.73014000      -5.42393000     -12.21905000
H        1.42588000      -5.78599000     -12.77751000
H       -1.12943000      -3.67685000     -10.65340000
O       -1.35764000      -3.10333000     -11.42051000
H       -2.16828000      -3.46111000     -11.81738000
H        1.99467000      -2.33626000     -11.93416000
O        1.46821000      -2.92388000     -11.41148000
H        0.57153000      -2.54194000     -11.36603000
