12
Properties=species:S:1:pos:R:3 frame=T 5=T |=T Written=T by=T MDAnalysis=T XYZWriter=T (release=T 2.0.0)=T pbc="F F F"
H        1.01332000      -3.86459000       8.35559000
O        0.19274000      -4.34529000       8.23806000
H       -0.42543000      -3.94887000       8.83981000
H        0.65183000      -1.57679000       9.02602000
O        0.90860000      -2.02389000       9.83826000
H        1.86999000      -2.02806000       9.89828000
H        0.45109000      -3.52408000      12.16948000
O        0.41159000      -4.44303000      11.86760000
H        1.20673000      -4.55452000      11.36003000
H       -0.69245000      -3.17642000      10.72376000
O       -1.51419000      -3.21451000      10.22010000
H       -1.52197000      -2.35850000       9.76700000
