12
Properties=species:S:1:pos:R:3 frame=T 24=T |=T Written=T by=T MDAnalysis=T XYZWriter=T (release=T 2.0.0)=T pbc="F F F"
H       16.38235000     -15.65887000     -11.19459000
O       15.86312000     -16.20808000     -11.77137000
H       16.27501000     -16.09589000     -12.65401000
H       17.77729000     -18.41444000      -9.81036000
O       17.59331000     -17.88021000      -9.01317000
H       17.50207000     -18.53869000      -8.29547000
H       15.64226000     -18.25835000      -9.27521000
O       14.84780000     -18.83103000      -9.27070000
H       14.92000000     -19.34274000     -10.09719000
H       17.27098000     -18.82626000     -11.38596000
O       18.10922000     -18.37181000     -11.58414000
H       17.83085000     -17.57314000     -12.09070000
