12
Properties=species:S:1:pos:R:3 frame=T 23=T |=T Written=T by=T MDAnalysis=T XYZWriter=T (release=T 2.0.0)=T pbc="F F F"
H       -7.74182000     -11.93477000      -7.29899000
O       -8.54659000     -12.00662000      -6.76109000
H       -9.28592000     -11.68319000      -7.31914000
H       -6.75257000     -12.19197000     -11.41159000
O       -7.51277000     -12.24510000     -10.82617000
H       -8.24955000     -12.01945000     -11.42929000
H       -6.59626000     -12.66799000      -9.05405000
O       -6.23288000     -12.53860000      -8.22733000
H       -5.56828000     -13.22417000      -8.10704000
H       -5.78480000     -10.97233000      -8.53719000
O       -5.75329000     -10.06293000      -8.90740000
H       -6.63120000      -9.92821000      -9.31724000
