12
Properties=species:S:1:pos:R:3 frame=T 4=T |=T Written=T by=T MDAnalysis=T XYZWriter=T (release=T 2.0.0)=T pbc="F F F"
H        6.12941000      -8.45871000       5.86463000
O        6.02831000      -8.01930000       5.01584000
H        5.09876000      -8.17322000       4.72968000
H        4.11446000      -5.77099000       5.43437000
O        3.22494000      -5.68324000       5.03858000
H        3.31062000      -5.99939000       4.14653000
H        4.20995000      -6.38644000       1.76691000
O        3.88240000      -6.88990000       2.51024000
H        3.40394000      -7.62406000       2.13527000
H        4.86252000      -9.13211000       1.85590000
O        5.05497000      -9.97401000       2.24733000
H        4.66711000      -9.89100000       3.12653000
