12
Properties=species:S:1:pos:R:3 frame=T 15=T |=T Written=T by=T MDAnalysis=T XYZWriter=T (release=T 2.0.0)=T pbc="F F F"
H      -17.52167000      16.27190000      -7.50358000
O      -16.99893000      16.82849000      -8.10350000
H      -16.14894000      16.88937000      -7.67924000
H      -16.71257000      16.73603000     -12.52094000
O      -16.95272000      17.67454000     -12.43635000
H      -17.82743000      17.71586000     -12.84232000
H      -13.52454000      15.60264000     -10.31671000
O      -13.27783000      16.43652000      -9.85409000
H      -14.11850000      16.90566000      -9.81534000
H      -16.97268000      18.49653000     -10.68121000
O      -17.09480000      19.18672000     -10.04765000
H      -17.26711000      18.69751000      -9.24906000
