12
Properties=species:S:1:pos:R:3 frame=T 16=T |=T Written=T by=T MDAnalysis=T XYZWriter=T (release=T 2.0.0)=T pbc="F F F"
H       15.96643000     -15.74737000      16.83250000
O       16.30205000     -16.36081000      16.16317000
H       17.21948000     -16.56505000      16.47244000
H       13.31987000     -15.12499000      14.88434000
O       13.22960000     -15.94332000      15.37876000
H       12.92504000     -15.58946000      16.23568000
H       14.47734000     -17.63957000      18.04247000
O       14.04399000     -18.01205000      17.27835000
H       14.08298000     -17.31337000      16.61443000
H       16.78199000     -19.50121000      18.23421000
O       17.41291000     -19.13023000      18.84291000
H       17.54237000     -18.24299000      18.48682000
