12
Properties=species:S:1:pos:R:3 frame=T 15=T |=T Written=T by=T MDAnalysis=T XYZWriter=T (release=T 2.0.0)=T pbc="F F F"
H      -15.06041000       5.21852000     -19.05789000
O      -15.71862000       5.11312000     -18.35356000
H      -16.18502000       5.96467000     -18.42080000
H      -14.99863000       8.99601000     -15.49638000
O      -15.31106000       8.62514000     -16.32719000
H      -15.95798000       7.97244000     -16.04895000
H      -15.93454000       9.53613000     -17.59689000
O      -16.50759000       9.87018000     -18.30408000
H      -16.37790000       9.25540000     -19.03699000
H      -17.88131000       9.23595000     -17.50722000
O      -18.74619000       8.93798000     -17.16409000
H      -18.54039000       8.32178000     -16.44236000
