12
Properties=species:S:1:pos:R:3 frame=T 25=T |=T Written=T by=T MDAnalysis=T XYZWriter=T (release=T 2.0.0)=T pbc="F F F"
H        8.03486000      -3.53812000     -13.59631000
O        8.48375000      -2.73426000     -13.81505000
H        8.08442000      -2.49843000     -14.69425000
H       10.35227000      -2.20932000     -15.53833000
O       11.18086000      -2.65636000     -15.24381000
H       11.00316000      -2.98782000     -14.33344000
H       11.42026000      -0.43162000     -16.86117000
O       12.23307000       0.08173000     -16.88185000
H       11.96398000       0.90679000     -17.27512000
H       10.06635000       0.23175000     -15.50347000
O        9.58776000      -0.45402000     -15.93220000
H        8.81055000      -0.02651000     -16.19104000
