12
Properties=species:S:1:pos:R:3 frame=T 12=T |=T Written=T by=T MDAnalysis=T XYZWriter=T (release=T 2.0.0)=T pbc="F F F"
H      -13.55670000     -14.43456000      16.51319000
O      -12.80578000     -14.76310000      16.04390000
H      -13.25574000     -15.28763000      15.35827000
H      -14.60130000     -16.71710000      13.86426000
O      -13.62579000     -16.64004000      14.05675000
H      -13.33176000     -17.56859000      14.10065000
H      -14.33493000     -15.22663000      11.63011000
O      -14.28489000     -16.17318000      11.40675000
H      -13.99639000     -16.59042000      12.22234000
H      -15.95804000     -16.25193000      12.46983000
O      -16.39306000     -16.04709000      13.29576000
H      -16.98757000     -16.80576000      13.43538000
