12
Properties=species:S:1:pos:R:3 frame=T 4=T |=T Written=T by=T MDAnalysis=T XYZWriter=T (release=T 2.0.0)=T pbc="F F F"
H      -10.63778000      -8.13549000      -9.97363000
O      -10.96478000      -7.61503000      -9.23458000
H      -11.19394000      -6.75582000      -9.60566000
H      -12.78529000     -10.01014000     -12.70938000
O      -13.30858000      -9.40543000     -13.25528000
H      -13.55312000      -8.70345000     -12.64946000
H      -12.83205000      -8.06752000      -9.84432000
O      -13.49593000      -8.39143000     -10.48729000
H      -13.59466000      -7.61896000     -11.06121000
H      -10.56337000      -9.27653000     -12.09324000
O      -10.87667000      -9.40866000     -11.20972000
H      -11.76937000      -9.08007000     -11.18728000
