12
Properties=species:S:1:pos:R:3 frame=T 17=T |=T Written=T by=T MDAnalysis=T XYZWriter=T (release=T 2.0.0)=T pbc="F F F"
H       -4.41061000      -7.47482000       4.09656000
O       -4.30638000      -6.96875000       4.91988000
H       -5.15693000      -7.07077000       5.36735000
H       -3.69594000      -8.71134000       5.80996000
O       -2.95043000      -9.14069000       6.18577000
H       -2.83829000      -9.91281000       5.57413000
H       -3.15941000      -7.92138000       2.31780000
O       -2.70888000      -8.66620000       2.78444000
H       -3.08423000      -9.40390000       2.27627000
H       -4.72829000      -6.30081000       1.01377000
O       -4.32767000      -6.54272000       1.85760000
H       -4.01804000      -5.71386000       2.28459000
