12
Properties=species:S:1:pos:R:3 frame=T 6=T |=T Written=T by=T MDAnalysis=T XYZWriter=T (release=T 2.0.0)=T pbc="F F F"
H       16.54606000      -3.74756000       5.41628000
O       17.08647000      -3.02947000       4.98314000
H       17.18503000      -3.36585000       4.11018000
H       19.26567000      -6.19670000       4.24442000
O       18.90305000      -7.08107000       4.38216000
H       18.12811000      -7.13307000       3.81160000
H       18.57501000      -4.79607000       2.90927000
O       17.77251000      -4.40663000       2.59570000
H       17.10132000      -5.05040000       2.93846000
H       15.58860000      -5.31593000       0.32560000
O       15.95470000      -6.20785000       0.54997000
H       16.88341000      -6.05948000       0.76322000
