12
Properties=species:S:1:pos:R:3 frame=T 5=T |=T Written=T by=T MDAnalysis=T XYZWriter=T (release=T 2.0.0)=T pbc="F F F"
H       16.49035000       2.85827000       6.89984000
O       16.64318000       1.97381000       7.28036000
H       15.96092000       1.48402000       6.87064000
H       18.56478000      -0.12683000       6.63113000
O       18.56418000       0.37301000       5.80492000
H       17.90666000       1.05586000       5.94325000
H       16.44396000      -0.74980000       5.57150000
O       15.68282000      -0.44648000       6.08435000
H       15.23073000       0.02761000       5.40193000
H       15.37200000       1.86448000       9.95150000
O       15.70974000       2.75875000       9.75551000
H       16.03580000       2.65588000       8.84714000
