12
Properties=species:S:1:pos:R:3 frame=T 24=T |=T Written=T by=T MDAnalysis=T XYZWriter=T (release=T 2.0.0)=T pbc="F F F"
H      -18.61457000     -11.17142000      -7.53218000
O      -18.30725000     -11.59559000      -6.71310000
H      -18.10612000     -10.84109000      -6.13362000
H      -18.33082000      -7.53379000      -8.64010000
O      -17.59682000      -7.05608000      -8.19031000
H      -16.82953000      -7.63067000      -8.14431000
H      -14.92177000      -9.56516000      -9.73744000
O      -13.96222000      -9.74269000      -9.72288000
H      -13.92488000     -10.48529000      -9.12072000
H      -17.09858000     -10.34912000      -8.44774000
O      -16.39915000      -9.65526000      -8.54305000
H      -15.80506000      -9.88264000      -7.80570000
