12
Properties=species:S:1:pos:R:3 frame=T 22=T |=T Written=T by=T MDAnalysis=T XYZWriter=T (release=T 2.0.0)=T pbc="F F F"
H        2.93068000     -13.51307000       5.74709000
O        2.05653000     -13.41558000       6.12265000
H        2.16181000     -13.71828000       7.01800000
H        4.01798000     -12.16076000       8.62679000
O        4.20596000     -13.05713000       8.35253000
H        4.52741000     -12.96568000       7.42889000
H        0.26483000     -15.74515000       5.25198000
O        0.08640000     -14.85993000       4.95096000
H        0.51184000     -14.30880000       5.57891000
H        1.62326000     -14.92639000       9.29369000
O        1.64982000     -13.98443000       9.18044000
H        2.56187000     -13.74167000       9.29883000
