12
Properties=species:S:1:pos:R:3 frame=T 16=T |=T Written=T by=T MDAnalysis=T XYZWriter=T (release=T 2.0.0)=T pbc="F F F"
H       -2.31093000      -8.30082000      -6.23985000
O       -2.77006000      -7.90473000      -6.98169000
H       -3.23695000      -8.66842000      -7.32886000
H       -5.10532000      -6.72357000      -3.99568000
O       -5.96717000      -7.11496000      -4.12064000
H       -6.53833000      -6.43942000      -3.71548000
H       -3.68465000      -5.51308000      -4.86549000
O       -3.37266000      -6.40916000      -4.61947000
H       -3.09035000      -6.76440000      -5.46585000
H       -2.30105000     -10.04564000      -4.23661000
O       -2.41824000      -9.12947000      -4.57811000
H       -1.54193000      -8.72841000      -4.56328000
