12
Properties=species:S:1:pos:R:3 frame=T 25=T |=T Written=T by=T MDAnalysis=T XYZWriter=T (release=T 2.0.0)=T pbc="F F F"
H      -17.55117000      -1.45379000      -3.77994000
O      -18.06015000      -1.35991000      -4.61851000
H      -17.43764000      -0.78650000      -5.10146000
H      -15.87666000      -1.36644000      -6.33383000
O      -15.92087000      -0.44494000      -6.62085000
H      -15.17663000       0.01111000      -6.26647000
H      -16.42514000      -0.61983000      -8.34363000
O      -16.42262000      -0.33900000      -9.28772000
H      -16.81470000      -1.08827000      -9.71799000
H      -15.20014000      -2.60728000      -5.33498000
O      -15.05857000      -3.53688000      -5.56230000
H      -15.95921000      -3.84577000      -5.79200000
