12
Properties=species:S:1:pos:R:3 frame=T 1=T |=T Written=T by=T MDAnalysis=T XYZWriter=T (release=T 2.0.0)=T pbc="F F F"
H      -14.01577000       9.81601000      -6.83033000
O      -13.24477000       9.76423000      -7.40211000
H      -12.50887000       9.40844000      -6.84402000
H      -10.33611000       8.72281000      -5.80204000
O      -10.80597000       8.32830000      -6.55294000
H      -10.08895000       7.96070000      -7.07516000
H      -12.97072000      10.51988000      -9.01424000
O      -13.17983000      10.72283000      -9.90022000
H      -12.47799000      11.36536000     -10.15401000
H      -12.80680000      11.43698000      -7.00172000
O      -12.38387000      12.29023000      -7.13338000
H      -13.05967000      12.77202000      -7.64848000
