9
Properties=species:S:1:pos:R:3 frame=T 21=T |=T Written=T by=T MDAnalysis=T XYZWriter=T (release=T 2.4.3)=T pbc="F F F"
H       18.56274000      -0.51722000       6.09341000
O       18.15895000       0.14445000       6.64846000
H       18.41025000      -0.08326000       7.54037000
H       16.66443000      -3.94624000       5.14413000
O       17.54971000      -3.89777000       4.70357000
H       18.03610000      -3.28950000       5.28473000
H       18.30427000       1.86174000       7.39611000
O       18.47396000       2.76414000       7.73116000
H       19.07658000       2.60737000       8.42432000
