9
Properties=species:S:1:pos:R:3 frame=T 94=T |=T Written=T by=T MDAnalysis=T XYZWriter=T (release=T 2.4.3)=T pbc="F F F"
H        9.78858000     -14.45802000      15.14015000
O        9.94882000     -13.69202000      15.63301000
H        9.63983000     -12.97667000      15.06318000
H       12.15259000     -12.95250000      17.00072000
O       12.07219000     -12.45560000      17.80589000
H       12.49171000     -11.61828000      17.63932000
H       14.97762000     -13.81803000      17.39176000
O       14.63487000     -13.12441000      18.01731000
H       13.68128000     -13.22086000      17.83154000
