9
Properties=species:S:1:pos:R:3 frame=T 63=T |=T Written=T by=T MDAnalysis=T XYZWriter=T (release=T 2.4.3)=T pbc="F F F"
H      -12.57322000       2.97823000      -1.96295000
O      -13.03402000       3.18159000      -1.12038000
H      -13.49864000       2.34258000      -0.91438000
H      -15.30175000       4.09268000      -1.99664000
O      -15.46708000       4.79894000      -2.64645000
H      -14.96719000       5.54469000      -2.31666000
H      -14.32612000       2.54324000      -3.80260000
O      -14.45203000       1.87158000      -3.13394000
H      -14.49319000       2.34144000      -2.26997000
