9
Properties=species:S:1:pos:R:3 frame=T 54=T |=T Written=T by=T MDAnalysis=T XYZWriter=T (release=T 2.4.3)=T pbc="F F F"
H       -4.61323000      17.55897000      17.88559000
O       -5.11760000      18.41972000      17.82461000
H       -5.76477000      18.20970000      17.17739000
H       -6.82595000      17.29766000      14.58739000
O       -6.45925000      17.18403000      15.46536000
H       -5.57476000      16.86189000      15.28406000
H       -8.10998000      16.87426000      18.87968000
O       -8.83490000      17.49521000      18.67243000
H       -8.44643000      18.11674000      18.04616000
