9
Properties=species:S:1:pos:R:3 frame=T 39=T |=T Written=T by=T MDAnalysis=T XYZWriter=T (release=T 2.4.3)=T pbc="F F F"
H      -18.79447000     -11.14966000      18.47610000
O      -18.43298000     -11.21304000      17.58267000
H      -17.47946000     -10.99196000      17.64752000
H      -18.11631000      -7.82554000      16.48274000
O      -18.89038000      -8.22123000      16.08638000
H      -18.73169000      -9.18311000      16.09033000
H      -14.70971000     -12.02531000      16.65532000
O      -14.37952000     -11.19028000      17.03034000
H      -14.96727000     -10.55828000      16.64724000
