9
Properties=species:S:1:pos:R:3 frame=T 72=T |=T Written=T by=T MDAnalysis=T XYZWriter=T (release=T 2.4.3)=T pbc="F F F"
H        3.63634000       4.86415000       2.21154000
O        4.22608000       4.83315000       1.44755000
H        4.76002000       5.59175000       1.52643000
H        3.37124000       2.58292000       3.87165000
O        4.18110000       3.05148000       4.14464000
H        4.81006000       2.76987000       3.51738000
H        4.13980000       4.98306000       4.17676000
O        3.47361000       5.62716000       3.91562000
H        2.70338000       5.16625000       4.23602000
