9
Properties=species:S:1:pos:R:3 frame=T 96=T |=T Written=T by=T MDAnalysis=T XYZWriter=T (release=T 2.4.3)=T pbc="F F F"
H      -10.88684000       7.83025000      14.73587000
O      -10.85341000       7.73168000      15.70367000
H       -9.91793000       7.82626000      15.91291000
H      -11.81907000       8.13167000      17.75624000
O      -12.46937000       8.00414000      18.46617000
H      -13.11420000       8.69447000      18.31449000
H      -13.04517000       4.52177000      17.50191000
O      -12.59125000       5.37478000      17.34129000
H      -12.92279000       6.02322000      17.96740000
