9
Properties=species:S:1:pos:R:3 frame=T 30=T |=T Written=T by=T MDAnalysis=T XYZWriter=T (release=T 2.4.3)=T pbc="F F F"
H       12.14566000      -2.58538000       9.50574000
O       11.96959000      -2.65178000      10.44425000
H       12.88242000      -2.61322000      10.83364000
H       14.08618000      -2.77485000      12.76552000
O       13.54082000      -3.57009000      12.88684000
H       14.01397000      -4.18859000      12.29372000
H       15.27525000      -3.14485000      10.59499000
O       15.08541000      -2.22192000      10.86651000
H       14.76528000      -1.81749000      10.03817000
