9
Properties=species:S:1:pos:R:3 frame=T 13=T |=T Written=T by=T MDAnalysis=T XYZWriter=T (release=T 2.4.3)=T pbc="F F F"
H      -18.00831000     -17.95106000      -1.54210000
O      -17.10395000     -18.13137000      -1.19211000
H      -17.02984000     -19.08704000      -1.28763000
H      -15.78421000     -16.93192000      -1.45329000
O      -15.11457000     -16.28008000      -1.63119000
H      -15.33812000     -16.00589000      -2.52787000
H      -16.17946000     -18.90425000      -3.26104000
O      -15.31814000     -19.09470000      -3.59212000
H      -14.78618000     -18.66649000      -2.90138000
