9
Properties=species:S:1:pos:R:3 frame=T 18=T |=T Written=T by=T MDAnalysis=T XYZWriter=T (release=T 2.4.3)=T pbc="F F F"
H        1.02172000      11.39589000      13.00523000
O        1.63761000      11.92179000      12.52558000
H        2.50482000      11.61749000      12.83206000
H        7.12371000       9.87632000      13.24142000
O        7.22166000      10.50795000      12.50653000
H        8.13625000      10.31632000      12.24644000
H        4.63857000      10.92211000      12.90020000
O        4.07489000      11.25749000      13.60455000
H        4.67683000      11.69121000      14.19598000
