9
Properties=species:S:1:pos:R:3 frame=T 15=T |=T Written=T by=T MDAnalysis=T XYZWriter=T (release=T 2.4.3)=T pbc="F F F"
H        5.13829000       0.12037000      14.24479000
O        4.92302000      -0.22233000      13.37594000
H        4.01824000      -0.53489000      13.44993000
H        5.38353000       0.49232000      11.76577000
O        5.02625000       0.81869000      10.92110000
H        5.01437000       0.01439000      10.36611000
H        3.86607000       2.15015000      13.74350000
O        4.13973000       2.60169000      12.95855000
H        4.22980000       1.88452000      12.28437000
