9
Properties=species:S:1:pos:R:3 frame=T 9=T |=T Written=T by=T MDAnalysis=T XYZWriter=T (release=T 2.4.3)=T pbc="F F F"
H       16.40663000      -5.13484000     -14.58742000
O       17.35009000      -5.07378000     -14.80094000
H       17.76435000      -5.80014000     -14.32259000
H       17.43861000      -7.55136000     -12.40445000
O       17.91777000      -6.79538000     -12.79385000
H       17.39335000      -6.02966000     -12.47552000
H       16.51853000      -4.29954000     -12.13131000
O       17.40512000      -3.89482000     -12.21485000
H       17.74543000      -4.17607000     -13.08586000
