9
Properties=species:S:1:pos:R:3 frame=T 80=T |=T Written=T by=T MDAnalysis=T XYZWriter=T (release=T 2.4.3)=T pbc="F F F"
H       15.50840000     -14.19571000      17.08231000
O       15.37557000     -14.08199000      16.13704000
H       15.34373000     -13.11608000      15.99022000
H       12.50192000     -14.89011000      16.19455000
O       12.79435000     -14.41118000      16.95332000
H       13.67121000     -14.10661000      16.80169000
H       13.63992000     -11.52989000      16.64019000
O       12.78245000     -11.59285000      17.09768000
H       12.68441000     -12.54754000      17.19402000
