9
Properties=species:S:1:pos:R:3 frame=T 36=T |=T Written=T by=T MDAnalysis=T XYZWriter=T (release=T 2.4.3)=T pbc="F F F"
H      -12.53754000      16.36717000      -2.77708000
O      -13.06957000      15.92075000      -2.08310000
H      -13.21794000      15.03158000      -2.49590000
H      -10.78288000      16.90507000      -3.77429000
O      -11.22843000      17.50208000      -3.13532000
H      -11.89784000      17.98174000      -3.67798000
H      -11.50261000      15.45484000      -1.34685000
O      -10.63411000      15.13117000      -1.07954000
H      -10.14577000      15.23197000      -1.87979000
