9
Properties=species:S:1:pos:R:3 frame=T 29=T |=T Written=T by=T MDAnalysis=T XYZWriter=T (release=T 2.4.3)=T pbc="F F F"
H        9.57799000      -9.58455000     -17.74876000
O       10.45857000      -9.72508000     -17.43246000
H       11.05524000      -9.52580000     -18.16817000
H        5.70603000      -9.73684000     -15.69065000
O        5.19170000     -10.29799000     -16.28968000
H        5.66736000     -10.16818000     -17.10428000
H        6.71822000      -8.13316000     -16.71659000
O        6.47173000      -7.93721000     -17.64580000
H        7.24272000      -8.25036000     -18.14793000
