9
Properties=species:S:1:pos:R:3 frame=T 2=T |=T Written=T by=T MDAnalysis=T XYZWriter=T (release=T 2.4.3)=T pbc="F F F"
H       -0.63308000       2.82788000      -8.28718000
O        0.03001000       3.16262000      -7.67434000
H        0.81491000       3.21583000      -8.20862000
H        2.79610000       5.03616000     -10.73220000
O        3.26500000       5.84817000     -10.86079000
H        2.66838000       6.41525000     -11.35329000
H        1.50583000       4.33315000      -9.43727000
O        1.35270000       4.04441000     -10.36097000
H        0.99561000       4.83679000     -10.81972000
