9
Properties=species:S:1:pos:R:3 frame=T 69=T |=T Written=T by=T MDAnalysis=T XYZWriter=T (release=T 2.4.3)=T pbc="F F F"
H       -3.83077000      -3.96923000       1.98076000
O       -3.70499000      -3.49016000       1.14649000
H       -3.48847000      -2.61027000       1.46081000
H       -2.43011000      -2.88747000       5.07228000
O       -2.32984000      -3.80326000       4.76576000
H       -2.06441000      -4.24609000       5.57046000
H       -2.48906000      -0.78908000       2.54260000
O       -2.80212000      -1.19763000       3.33921000
H       -3.62281000      -0.73828000       3.57934000
