9
Properties=species:S:1:pos:R:3 frame=T 58=T |=T Written=T by=T MDAnalysis=T XYZWriter=T (release=T 2.4.3)=T pbc="F F F"
H       18.84300000      -9.36950000     -12.61579000
O       18.11069000      -9.22223000     -12.01127000
H       17.72380000     -10.08311000     -11.80671000
H       17.42692000      -7.65377000      -8.85029000
O       17.22402000      -8.56955000      -9.08178000
H       17.39150000      -8.60384000     -10.03318000
H       18.00774000      -6.79681000     -12.41180000
O       17.38346000      -6.15933000     -12.73824000
H       16.69365000      -6.70288000     -13.16810000
