9
Properties=species:S:1:pos:R:3 frame=T 19=T |=T Written=T by=T MDAnalysis=T XYZWriter=T (release=T 2.4.3)=T pbc="F F F"
H      -16.44393000      11.76534000       3.75727000
O      -16.38947000      11.41593000       4.67403000
H      -15.44998000      11.39792000       4.82789000
H      -19.19636000       7.99894000       3.84343000
O      -18.38474000       8.34564000       3.45333000
H      -17.75766000       8.42568000       4.17462000
H      -17.47646000      12.17486000       1.58761000
O      -17.86298000      11.76964000       2.37330000
H      -18.44200000      11.10127000       1.94379000
