9
Properties=species:S:1:pos:R:3 frame=T 42=T |=T Written=T by=T MDAnalysis=T XYZWriter=T (release=T 2.4.3)=T pbc="F F F"
H      -13.92015000       1.23747000       1.93140000
O      -13.24510000       0.57437000       2.12031000
H      -12.55535000       1.07741000       2.55472000
H      -11.29495000      -3.02296000       4.50231000
O      -11.17157000      -3.80945000       4.97095000
H      -10.68197000      -3.56067000       5.74794000
H      -12.26003000      -1.16357000       3.16730000
O      -11.95952000      -1.21931000       4.07421000
H      -12.51969000      -0.56642000       4.50452000
