9
Properties=species:S:1:pos:R:3 frame=T 63=T |=T Written=T by=T MDAnalysis=T XYZWriter=T (release=T 2.4.3)=T pbc="F F F"
H       14.53277000     -15.93104000      13.48521000
O       13.67571000     -15.73030000      13.91236000
H       13.86126000     -15.25878000      14.74281000
H       14.29063000     -12.62678000      16.35863000
O       14.36651000     -11.68351000      16.55148000
H       15.31667000     -11.58354000      16.49245000
H       11.63196000     -13.21831000      15.15271000
O       12.41432000     -13.56609000      15.62492000
H       12.14425000     -13.84509000      16.53081000
