9
Properties=species:S:1:pos:R:3 frame=T 8=T |=T Written=T by=T MDAnalysis=T XYZWriter=T (release=T 2.4.3)=T pbc="F F F"
H       -3.92243000       9.62082000       4.62770000
O       -4.18431000       9.65806000       5.53565000
H       -5.03974000       9.19807000       5.52967000
H       -4.16014000       7.08818000       6.59814000
O       -3.29182000       7.22640000       6.21620000
H       -3.31233000       8.16559000       5.97741000
H       -4.70334000      12.58189000       5.00167000
O       -5.40727000      12.02975000       5.39964000
H       -4.97663000      11.16357000       5.50029000
