9
Properties=species:S:1:pos:R:3 frame=T 77=T |=T Written=T by=T MDAnalysis=T XYZWriter=T (release=T 2.4.3)=T pbc="F F F"
H       -2.32078000      15.94703000      -8.23452000
O       -2.90052000      15.17359000      -8.24604000
H       -3.11591000      15.01487000      -7.31962000
H       -1.93431000      17.59219000      -6.61936000
O       -1.57374000      17.51819000      -7.51636000
H       -2.06824000      18.21182000      -7.94491000
H       -3.70504000      16.66018000      -8.91311000
O       -4.21566000      17.47404000      -8.81489000
H       -4.46717000      17.66903000      -9.72027000
