9
Properties=species:S:1:pos:R:3 frame=T 93=T |=T Written=T by=T MDAnalysis=T XYZWriter=T (release=T 2.4.3)=T pbc="F F F"
H       18.49775000       8.15115000      16.45376000
O       18.64305000       9.01174000      16.91272000
H       17.77556000       9.28451000      17.23867000
H       17.11854000       7.02505000      14.74426000
O       16.48108000       7.71516000      14.99720000
H       16.64928000       8.43847000      14.39263000
H       17.86881000      10.75295000      14.18755000
O       18.29331000       9.90364000      14.32988000
H       18.27745000       9.88747000      15.26613000
