9
Properties=species:S:1:pos:R:3 frame=T 90=T |=T Written=T by=T MDAnalysis=T XYZWriter=T (release=T 2.4.3)=T pbc="F F F"
H      -17.12094000      -1.40204000      -8.08616000
O      -17.63139000      -1.46007000      -8.89944000
H      -18.27805000      -2.17371000      -8.73475000
H      -16.49846000      -4.20346000      -8.84241000
O      -16.25559000      -4.40699000      -7.90645000
H      -15.31173000      -4.41460000      -7.90903000
H      -18.46433000      -3.81467000      -6.21814000
O      -17.67903000      -3.36806000      -5.87243000
H      -17.05105000      -3.35541000      -6.59410000
