9
Properties=species:S:1:pos:R:3 frame=T 63=T |=T Written=T by=T MDAnalysis=T XYZWriter=T (release=T 2.4.3)=T pbc="F F F"
H        3.16635000       0.10313000      17.72833000
O        2.63545000       0.83356000      17.43132000
H        2.27541000       0.60158000      16.58428000
H        4.89118000      -1.62871000      17.25138000
O        4.31376000      -1.88470000      17.98552000
H        4.57733000      -1.26239000      18.67954000
H        6.05055000      -0.09752000      14.64627000
O        5.24142000      -0.41322000      15.06011000
H        4.61890000      -0.09727000      14.41293000
