9
Properties=species:S:1:pos:R:3 frame=T 82=T |=T Written=T by=T MDAnalysis=T XYZWriter=T (release=T 2.4.3)=T pbc="F F F"
H       -8.82239000       2.70372000      13.81097000
O       -8.68897000       3.66195000      13.86799000
H       -9.50355000       4.08568000      13.65422000
H       -5.91188000      -0.12351000      16.34902000
O       -5.99276000       0.22095000      15.42846000
H       -5.47437000       1.03262000      15.39361000
H       -7.75983000       0.72597000      12.67535000
O       -8.39577000       0.68623000      13.39706000
H       -7.87795000       0.19529000      14.06944000
