9
Properties=species:S:1:pos:R:3 frame=T 52=T |=T Written=T by=T MDAnalysis=T XYZWriter=T (release=T 2.4.3)=T pbc="F F F"
H       -1.24788000      13.67395000     -13.58656000
O       -1.32863000      12.96186000     -14.21626000
H       -1.50493000      13.40663000     -15.04604000
H       -2.85734000      12.90045000     -13.05229000
O       -3.71632000      12.51039000     -12.99588000
H       -3.93101000      12.55635000     -12.05867000
H        0.34700000      14.00679000     -14.38603000
O        1.28810000      14.22090000     -14.48705000
H        1.75999000      13.41263000     -14.22081000
