9
Properties=species:S:1:pos:R:3 frame=T 88=T |=T Written=T by=T MDAnalysis=T XYZWriter=T (release=T 2.4.3)=T pbc="F F F"
H       -5.64236000      17.37574000      -5.37590000
O       -5.66195000      16.58837000      -5.92678000
H       -5.33193000      15.87588000      -5.35458000
H       -0.18945000      18.87867000      -7.44349000
O       -0.84553000      19.20166000      -8.06277000
H       -1.53388000      18.57254000      -7.98231000
H       -4.18552000      17.27691000      -9.12002000
O       -3.85129000      17.52024000      -8.26266000
H       -4.13952000      16.87717000      -7.60344000
