9
Properties=species:S:1:pos:R:3 frame=T 67=T |=T Written=T by=T MDAnalysis=T XYZWriter=T (release=T 2.4.3)=T pbc="F F F"
H      -15.45780000     -14.39372000     -13.65101000
O      -16.37440000     -14.69684000     -13.80908000
H      -16.54007000     -15.27451000     -13.05624000
H      -19.18152000     -17.12803000     -14.74547000
O      -18.70183000     -16.59577000     -14.07201000
H      -18.28640000     -17.26138000     -13.52228000
H      -18.13035000     -13.25534000     -15.23924000
O      -18.95784000     -13.46836000     -14.82458000
H      -18.77970000     -14.13713000     -14.15027000
