9
Properties=species:S:1:pos:R:3 frame=T 23=T |=T Written=T by=T MDAnalysis=T XYZWriter=T (release=T 2.4.3)=T pbc="F F F"
H      -18.45857000     -18.61888000     -14.57032000
O      -19.04544000     -17.87031000     -14.55213000
H      -18.41739000     -17.17010000     -14.69559000
H      -16.63709000     -18.85238000     -11.16686000
O      -16.29385000     -17.95733000     -11.31845000
H      -17.03624000     -17.42927000     -11.65091000
H      -16.99107000     -15.05386000     -15.30447000
O      -17.34832000     -15.94004000     -15.53589000
H      -16.57525000     -16.44737000     -15.86662000
