9
Properties=species:S:1:pos:R:3 frame=T 92=T |=T Written=T by=T MDAnalysis=T XYZWriter=T (release=T 2.4.3)=T pbc="F F F"
H      -11.91935000       9.93979000     -15.54316000
O      -11.20408000      10.55126000     -15.28596000
H      -10.41421000       9.97984000     -15.33961000
H      -12.57384000      12.36775000     -18.17267000
O      -12.87028000      11.46847000     -18.37714000
H      -13.78649000      11.44867000     -18.13336000
H      -13.73209000       9.35206000     -16.97160000
O      -13.55240000       8.98683000     -16.09599000
H      -14.42332000       8.75670000     -15.72645000
