9
Properties=species:S:1:pos:R:3 frame=T 75=T |=T Written=T by=T MDAnalysis=T XYZWriter=T (release=T 2.4.3)=T pbc="F F F"
H        7.08616000      -7.37667000      14.21010000
O        6.12332000      -7.62620000      14.27515000
H        5.66261000      -6.75716000      14.31236000
H        5.48748000      -4.82590000      13.27353000
O        6.44954000      -4.91179000      13.40183000
H        6.80290000      -5.11736000      12.54972000
H        7.85840000      -5.52869000      14.78909000
O        8.54355000      -5.43208000      15.46202000
H        8.54662000      -6.30595000      15.84610000
