9
Properties=species:S:1:pos:R:3 frame=T 3=T |=T Written=T by=T MDAnalysis=T XYZWriter=T (release=T 2.4.3)=T pbc="F F F"
H        1.38926000      -2.28110000      -3.60519000
O        0.49298000      -2.70606000      -3.65911000
H       -0.13015000      -1.99507000      -3.48447000
H        3.75293000      -1.64839000      -3.14087000
O        2.97387000      -1.08662000      -3.00383000
H        2.78110000      -1.11985000      -2.07366000
H        1.99434000       1.14667000      -3.62797000
O        2.00788000       2.05623000      -3.30548000
H        1.59126000       2.05956000      -2.42937000
