9
Properties=species:S:1:pos:R:3 frame=T 96=T |=T Written=T by=T MDAnalysis=T XYZWriter=T (release=T 2.4.3)=T pbc="F F F"
H      -16.28259000       1.12532000       1.11131000
O      -16.12514000       0.24299000       1.39299000
H      -16.94225000      -0.23147000       1.21244000
H      -18.81794000      -4.88478000       0.35277000
O      -17.93494000      -5.17236000       0.68092000
H      -17.30716000      -4.78268000       0.04379000
H      -17.79215000      -3.30337000       1.60318000
O      -17.35725000      -2.45279000       1.67047000
H      -17.12019000      -2.37703000       2.60017000
