9
Properties=species:S:1:pos:R:3 frame=T 4=T |=T Written=T by=T MDAnalysis=T XYZWriter=T (release=T 2.4.3)=T pbc="F F F"
H       10.86564000     -11.08345000       4.60270000
O       10.33321000     -11.35660000       3.86233000
H       10.89072000     -12.03737000       3.48379000
H       11.88623000     -11.73180000       6.74700000
O       12.09363000     -10.99614000       6.15391000
H       12.19033000     -10.20423000       6.68205000
H        8.15635000     -10.88326000       6.00126000
O        8.50538000     -10.21952000       6.63045000
H        9.11780000      -9.67555000       6.12564000
