9
Properties=species:S:1:pos:R:3 frame=T 98=T |=T Written=T by=T MDAnalysis=T XYZWriter=T (release=T 2.4.3)=T pbc="F F F"
H      -17.03976000     -16.16177000      13.42776000
O      -16.38240000     -16.86234000      13.50909000
H      -15.61325000     -16.50138000      13.04010000
H      -19.12532000     -14.21854000      13.46556000
O      -18.60357000     -15.00700000      13.72972000
H      -19.00437000     -15.26467000      14.52904000
H      -16.43969000     -13.65403000      16.94823000
O      -16.62486000     -14.05835000      16.07158000
H      -17.52082000     -13.76583000      15.85569000
