9
Properties=species:S:1:pos:R:3 frame=T 38=T |=T Written=T by=T MDAnalysis=T XYZWriter=T (release=T 2.4.3)=T pbc="F F F"
H       -2.61824000      -0.54953000      16.32433000
O       -2.16683000      -1.36586000      16.04663000
H       -2.63305000      -2.02561000      16.55103000
H       -2.99094000      -0.74712000      14.59855000
O       -3.18273000      -0.09268000      13.89815000
H       -2.31719000       0.29830000      13.65913000
H       -3.70732000      -4.16904000      17.37015000
O       -3.23320000      -3.39246000      17.73730000
H       -2.53613000      -3.73435000      18.29335000
