9
Properties=species:S:1:pos:R:3 frame=T 69=T |=T Written=T by=T MDAnalysis=T XYZWriter=T (release=T 2.4.3)=T pbc="F F F"
H      -17.62731000      18.93657000       5.80769000
O      -16.98751000      18.83482000       5.08067000
H      -17.50014000      18.72334000       4.26612000
H      -12.42965000      16.35764000       4.45453000
O      -13.19752000      16.65805000       4.92257000
H      -13.00203000      16.40463000       5.83337000
H      -14.28567000      19.47557000       3.93606000
O      -13.45308000      19.23616000       4.40962000
H      -13.51013000      18.32580000       4.63584000
