9
Properties=species:S:1:pos:R:3 frame=T 87=T |=T Written=T by=T MDAnalysis=T XYZWriter=T (release=T 2.4.3)=T pbc="F F F"
H       -7.34663000       4.47112000       6.03454000
O       -7.60174000       3.65713000       6.44611000
H       -7.32327000       2.98270000       5.83424000
H       -5.23671000       6.54996000       6.35846000
O       -5.32068000       5.73991000       5.82361000
H       -6.12568000       5.85483000       5.32299000
H       -8.02245000       6.35997000       4.90636000
O       -7.57144000       5.59996000       4.49650000
H       -8.32899000       5.00530000       4.36087000
