9
Properties=species:S:1:pos:R:3 frame=T 83=T |=T Written=T by=T MDAnalysis=T XYZWriter=T (release=T 2.4.3)=T pbc="F F F"
H       11.19037000     -15.63675000       6.88790000
O       11.33372000     -16.16804000       6.10782000
H       12.29250000     -16.39244000       6.12682000
H       11.49610000     -16.95084000       8.31726000
O       11.55727000     -17.70999000       8.95878000
H       10.66973000     -18.02787000       9.11522000
H       11.09550000     -15.48462000       4.48715000
O       10.92239000     -15.01785000       3.66406000
H       10.88206000     -14.11407000       3.93675000
