9
Properties=species:S:1:pos:R:3 frame=T 77=T |=T Written=T by=T MDAnalysis=T XYZWriter=T (release=T 2.4.3)=T pbc="F F F"
H       15.76554000       9.62864000      -2.54344000
O       15.23931000      10.38862000      -2.79524000
H       15.00825000      10.18083000      -3.71001000
H       18.84758000       9.76676000      -2.26305000
O       18.81167000      10.35224000      -3.06665000
H       18.10992000      10.97601000      -2.81394000
H       17.40074000      11.58995000      -1.26105000
O       17.20209000      12.17037000      -1.98171000
H       16.39452000      11.78705000      -2.41215000
