9
Properties=species:S:1:pos:R:3 frame=T 53=T |=T Written=T by=T MDAnalysis=T XYZWriter=T (release=T 2.4.3)=T pbc="F F F"
H       11.57528000      -5.08139000      -9.34150000
O       10.80543000      -5.13754000      -8.76846000
H       11.02393000      -5.90770000      -8.24029000
H       11.40346000      -6.36075000     -11.55295000
O       12.02458000      -7.06655000     -11.35357000
H       11.39118000      -7.73816000     -11.01493000
H       10.07813000      -6.08157000      -9.88678000
O        9.42432000      -6.37021000     -10.53762000
H        9.45876000      -7.31977000     -10.47118000
