9
Properties=species:S:1:pos:R:3 frame=T 89=T |=T Written=T by=T MDAnalysis=T XYZWriter=T (release=T 2.4.3)=T pbc="F F F"
H        1.81891000     -18.08257000       8.80328000
O        2.18213000     -17.65923000       9.61257000
H        3.15601000     -17.75607000       9.45670000
H       -0.85240000     -18.23433000       8.29154000
O       -0.04568000     -18.78050000       8.33791000
H        0.16849000     -18.83493000       7.39481000
H       -0.90130000     -16.46717000       5.74724000
O       -0.38653000     -17.21514000       5.45699000
H       -0.16158000     -17.00745000       4.52462000
