9
Properties=species:S:1:pos:R:3 frame=T 91=T |=T Written=T by=T MDAnalysis=T XYZWriter=T (release=T 2.4.3)=T pbc="F F F"
H      -16.22910000       2.93531000      -4.30992000
O      -15.97926000       3.69240000      -3.78103000
H      -15.46438000       4.15496000      -4.41110000
H      -16.51988000       0.42448000      -6.13603000
O      -16.73759000       1.25305000      -5.70435000
H      -17.22142000       0.96310000      -4.92540000
H      -17.79446000       5.89588000      -2.13808000
O      -17.96130000       5.47997000      -2.98899000
H      -17.30490000       4.79246000      -3.03002000
