9
Properties=species:S:1:pos:R:3 frame=T 36=T |=T Written=T by=T MDAnalysis=T XYZWriter=T (release=T 2.4.3)=T pbc="F F F"
H       13.63054000       0.09245000      16.10439000
O       13.38518000       0.80117000      15.53631000
H       12.90991000       1.38310000      16.10059000
H       15.23861000      -1.63054000      16.64629000
O       14.34290000      -1.38888000      16.85373000
H       14.39253000      -1.03190000      17.75988000
H       15.66074000      -4.04239000      17.13123000
O       15.54096000      -3.64245000      17.98616000
H       15.04679000      -4.35233000      18.45469000
