9
Properties=species:S:1:pos:R:3 frame=T 71=T |=T Written=T by=T MDAnalysis=T XYZWriter=T (release=T 2.4.3)=T pbc="F F F"
H       -9.20434000     -11.71596000       0.66561000
O       -9.84368000     -12.06335000       0.04594000
H       -9.87322000     -13.01980000       0.21372000
H      -12.23002000      -9.77700000       1.25888000
O      -11.67991000     -10.47042000       1.69509000
H      -11.29119000     -10.98628000       0.96439000
H       -7.82295000      -9.64212000      -0.05567000
O       -7.93545000      -9.76660000       0.88238000
H       -7.08473000      -9.45260000       1.18831000
