9
Properties=species:S:1:pos:R:3 frame=T 43=T |=T Written=T by=T MDAnalysis=T XYZWriter=T (release=T 2.4.3)=T pbc="F F F"
H       -2.42644000      -2.03259000      -2.35558000
O       -1.62640000      -2.13549000      -1.83722000
H       -1.70419000      -1.48425000      -1.14825000
H        0.20408000      -2.94384000      -2.22271000
O        0.89943000      -3.46287000      -1.72730000
H        1.05467000      -2.88729000      -0.95079000
H        0.49165000      -0.30762000      -3.08350000
O        0.06299000      -0.81479000      -3.79494000
H       -0.69170000      -1.18308000      -3.34060000
