9
Properties=species:S:1:pos:R:3 frame=T 25=T |=T Written=T by=T MDAnalysis=T XYZWriter=T (release=T 2.4.3)=T pbc="F F F"
H       -0.33353000     -16.03494000      -4.35269000
O       -0.76211000     -16.16453000      -3.46983000
H       -0.19506000     -16.86164000      -3.07744000
H       -0.33951000     -18.68130000      -5.70135000
O        0.54216000     -18.30582000      -5.83993000
H        0.44204000     -17.38759000      -5.55407000
H        1.26412000     -15.32356000      -6.05959000
O        1.32815000     -15.80649000      -5.20612000
H        2.27997000     -15.91072000      -5.04963000
