9
Properties=species:S:1:pos:R:3 frame=T 30=T |=T Written=T by=T MDAnalysis=T XYZWriter=T (release=T 2.4.3)=T pbc="F F F"
H       -8.45251000      -9.23611000       4.31410000
O       -7.76361000      -9.90121000       4.27366000
H       -8.09055000     -10.49533000       3.53906000
H       -6.46101000      -3.87662000       2.45916000
O       -5.99365000      -4.61447000       2.84230000
H       -6.51860000      -4.74490000       3.67828000
H       -6.28810000      -7.96810000       4.16255000
O       -6.94293000      -7.27464000       4.30713000
H       -7.13457000      -7.30055000       5.24082000
