9
Properties=species:S:1:pos:R:3 frame=T 56=T |=T Written=T by=T MDAnalysis=T XYZWriter=T (release=T 2.4.3)=T pbc="F F F"
H       14.16792000      -7.80103000      13.31651000
O       14.16869000      -7.47121000      12.40599000
H       13.37801000      -6.96727000      12.30645000
H       16.47516000      -8.98555000      11.79589000
O       17.13527000      -8.27510000      11.78358000
H       16.95244000      -7.77480000      10.95235000
H       15.07497000      -8.59472000      10.01793000
O       14.73040000      -9.34547000      10.48668000
H       14.53248000      -8.93419000      11.35595000
