9
Properties=species:S:1:pos:R:3 frame=T 77=T |=T Written=T by=T MDAnalysis=T XYZWriter=T (release=T 2.4.3)=T pbc="F F F"
H       14.97490000     -15.84727000      13.80493000
O       14.45859000     -15.07246000      14.05336000
H       14.24004000     -15.21972000      14.99823000
H       11.72172000     -15.41825000      12.60080000
O       12.28124000     -16.12695000      12.94854000
H       12.96929000     -15.70860000      13.47824000
H       16.89366000     -13.57312000      15.20446000
O       17.22223000     -14.17579000      14.56418000
H       16.41002000     -14.55558000      14.22443000
