9
Properties=species:S:1:pos:R:3 frame=T 85=T |=T Written=T by=T MDAnalysis=T XYZWriter=T (release=T 2.4.3)=T pbc="F F F"
H       13.76438000     -16.38515000      12.14816000
O       13.38706000     -15.51797000      12.17271000
H       13.21098000     -15.32044000      11.24198000
H       13.27447000     -14.84109000      14.15485000
O       13.25918000     -14.68919000      15.10460000
H       13.69756000     -13.84084000      15.17338000
H       11.87695000     -15.76995000      17.53410000
O       11.37559000     -15.56298000      16.77510000
H       12.03244000     -15.19185000      16.17760000
