9
Properties=species:S:1:pos:R:3 frame=T 10=T |=T Written=T by=T MDAnalysis=T XYZWriter=T (release=T 2.4.3)=T pbc="F F F"
H       -0.79442000      -0.57675000       5.28733000
O       -0.64246000      -1.01298000       4.45913000
H       -1.40966000      -1.56628000       4.37960000
H       -0.78893000       1.86907000       5.83259000
O       -1.46818000       1.20256000       5.97947000
H       -1.74244000       0.92990000       5.07932000
H       -3.08443000       1.66960000       3.92201000
O       -2.82424000       0.78120000       3.63910000
H       -2.34188000       0.88287000       2.82197000
