9
Properties=species:S:1:pos:R:3 frame=T 69=T |=T Written=T by=T MDAnalysis=T XYZWriter=T (release=T 2.4.3)=T pbc="F F F"
H       13.34451000      -8.92612000       8.62089000
O       14.19951000      -9.30708000       8.46015000
H       14.76470000      -8.83139000       9.07955000
H       13.64695000     -11.49162000      10.92176000
O       13.94306000     -11.67036000      10.01935000
H       13.98487000     -10.79219000       9.63842000
H       14.87049000      -7.69710000       6.51623000
O       14.24843000      -6.96001000       6.48252000
H       13.59482000      -7.29910000       7.08918000
