9
Properties=species:S:1:pos:R:3 frame=T 16=T |=T Written=T by=T MDAnalysis=T XYZWriter=T (release=T 2.4.3)=T pbc="F F F"
H       -0.16476000      -1.13624000      -1.03251000
O        0.06639000      -0.92789000      -0.11086000
H        0.14757000       0.03199000      -0.09039000
H        1.06693000       1.53958000      -1.09756000
O        1.90319000       1.24964000      -0.63525000
H        2.47032000       0.88888000      -1.33118000
H        2.55239000      -0.95284000      -2.03163000
O        2.69733000      -1.51460000      -1.24216000
H        1.91422000      -1.38452000      -0.72229000
