9
Properties=species:S:1:pos:R:3 frame=T 83=T |=T Written=T by=T MDAnalysis=T XYZWriter=T (release=T 2.4.3)=T pbc="F F F"
H       -7.70543000      13.76581000      11.51058000
O       -7.18468000      13.44074000      10.76530000
H       -7.61284000      13.80223000      10.01614000
H       -9.49056000      15.36460000       9.47732000
O       -8.58139000      15.29575000       9.14022000
H       -8.08839000      16.00196000       9.55560000
H       -9.25024000      16.05454000       7.75603000
O       -9.73467000      16.45517000       7.01034000
H      -10.54539000      16.79669000       7.40629000
