9
Properties=species:S:1:pos:R:3 frame=T 50=T |=T Written=T by=T MDAnalysis=T XYZWriter=T (release=T 2.4.3)=T pbc="F F F"
H       -3.81078000     -10.97918000      -1.45482000
O       -4.68221000     -11.38177000      -1.56298000
H       -5.26302000     -10.65158000      -1.38929000
H       -4.40099000      -9.68601000      -4.45630000
O       -4.62411000      -9.49901000      -3.50482000
H       -4.78329000     -10.35000000      -3.07834000
H       -6.21628000      -8.73289000      -1.46294000
O       -6.43809000      -9.48122000      -0.90116000
H       -7.13926000      -9.99953000      -1.33415000
