9
Properties=species:S:1:pos:R:3 frame=T 8=T |=T Written=T by=T MDAnalysis=T XYZWriter=T (release=T 2.4.3)=T pbc="F F F"
H       -6.18281000     -16.21192000       8.78281000
O       -5.34753000     -15.71209000       8.82203000
H       -5.52188000     -15.05993000       9.51504000
H       -6.92047000     -12.65592000      11.18373000
O       -6.45782000     -13.42156000      10.82871000
H       -6.43860000     -13.98579000      11.60803000
H       -5.09589000     -15.68379000      12.62310000
O       -6.04198000     -15.59091000      12.69693000
H       -6.32542000     -16.25879000      13.30979000
