9
Properties=species:S:1:pos:R:3 frame=T 19=T |=T Written=T by=T MDAnalysis=T XYZWriter=T (release=T 2.4.3)=T pbc="F F F"
H      -19.44994000     -16.07029000     -15.50492000
O      -18.73980000     -16.68143000     -15.20453000
H      -17.93563000     -16.16298000     -15.22050000
H      -15.63305000     -18.12040000     -14.99344000
O      -16.03763000     -18.81769000     -15.50679000
H      -16.29393000     -18.39926000     -16.33487000
H      -16.40959000     -16.87773000     -18.06585000
O      -16.60545000     -17.81819000     -18.02874000
H      -17.53869000     -17.84664000     -18.26597000
