9
Properties=species:S:1:pos:R:3 frame=T 53=T |=T Written=T by=T MDAnalysis=T XYZWriter=T (release=T 2.4.3)=T pbc="F F F"
H       -0.36303000       1.42299000       4.56857000
O       -0.35617000       0.56649000       4.11753000
H        0.58980000       0.38555000       4.09375000
H        2.85726000       0.66670000       2.86644000
O        2.39212000      -0.15152000       3.15865000
H        3.12219000      -0.79322000       3.26358000
H        0.53178000      -0.49335000      -0.12814000
O        1.15136000       0.15297000       0.23093000
H        1.15077000      -0.00817000       1.19052000
