9
Properties=species:S:1:pos:R:3 frame=T 22=T |=T Written=T by=T MDAnalysis=T XYZWriter=T (release=T 2.4.3)=T pbc="F F F"
H       14.57442000     -13.00066000       4.47248000
O       14.24603000     -12.76413000       5.33099000
H       14.86944000     -12.10551000       5.55722000
H       12.31338000     -12.05158000       3.29571000
O       12.73262000     -11.47985000       2.66993000
H       13.15010000     -10.83671000       3.28152000
H       15.73018000     -12.69857000       2.02607000
O       15.13443000     -13.14038000       2.68788000
H       14.31732000     -12.61801000       2.49726000
