9
Properties=species:S:1:pos:R:3 frame=T 87=T |=T Written=T by=T MDAnalysis=T XYZWriter=T (release=T 2.4.3)=T pbc="F F F"
H       15.02583000      11.42552000      -6.06822000
O       15.38235000      10.65196000      -5.65237000
H       15.00296000      10.78226000      -4.77533000
H       17.18035000      10.09443000      -6.45718000
O       17.74767000       9.61111000      -7.07108000
H       17.97467000       8.79428000      -6.61158000
H       17.24152000      11.93344000      -4.38871000
O       17.81843000      11.19249000      -4.50041000
H       17.18296000      10.47629000      -4.40396000
