9
Properties=species:S:1:pos:R:3 frame=T 63=T |=T Written=T by=T MDAnalysis=T XYZWriter=T (release=T 2.4.3)=T pbc="F F F"
H        4.74062000     -10.24228000     -10.77013000
O        5.39687000      -9.90501000     -10.11765000
H        6.07663000      -9.47273000     -10.66347000
H        0.30802000     -11.76180000     -12.75063000
O        0.44113000     -10.86668000     -12.44371000
H        0.02080000     -10.91759000     -11.57537000
H        2.95591000     -10.90294000     -11.93966000
O        3.67342000     -10.34347000     -12.21122000
H        3.32187000      -9.48719000     -12.02616000
