9
Properties=species:S:1:pos:R:3 frame=T 19=T |=T Written=T by=T MDAnalysis=T XYZWriter=T (release=T 2.4.3)=T pbc="F F F"
H       14.69576000      -2.35196000       1.98775000
O       15.37603000      -2.80925000       2.47144000
H       15.99511000      -2.12710000       2.77728000
H       15.26714000      -3.54439000       4.17761000
O       15.55012000      -3.74871000       5.08151000
H       16.28056000      -4.39277000       4.96232000
H       16.72743000      -4.88935000       1.55288000
O       16.37814000      -5.76681000       1.69009000
H       15.45463000      -5.57321000       1.95183000
