9
Properties=species:S:1:pos:R:3 frame=T 84=T |=T Written=T by=T MDAnalysis=T XYZWriter=T (release=T 2.4.3)=T pbc="F F F"
H        4.23724000       3.74700000     -14.20272000
O        3.88911000       4.00143000     -15.08898000
H        4.52575000       4.69001000     -15.32330000
H        3.09251000       1.49075000     -13.65244000
O        2.15862000       1.69907000     -13.48131000
H        1.86621000       2.05448000     -14.33283000
H        3.77763000       4.55840000     -12.50696000
O        3.88295000       3.58221000     -12.47692000
H        3.00003000       3.24385000     -12.62893000
