9
Properties=species:S:1:pos:R:3 frame=T 98=T |=T Written=T by=T MDAnalysis=T XYZWriter=T (release=T 2.4.3)=T pbc="F F F"
H       16.72619000      14.80178000     -12.74662000
O       15.89812000      14.44073000     -12.42205000
H       16.22088000      13.89404000     -11.68640000
H       18.45588000      11.95409000     -13.98158000
O       18.81935000      11.36769000     -14.65436000
H       18.03506000      10.85787000     -14.88380000
H       17.94654000      14.99819000     -13.76480000
O       18.52246000      14.54816000     -13.12254000
H       18.83385000      15.26881000     -12.55916000
