9
Properties=species:S:1:pos:R:3 frame=T 73=T |=T Written=T by=T MDAnalysis=T XYZWriter=T (release=T 2.4.3)=T pbc="F F F"
H       11.35658000      18.84753000     -13.30055000
O       11.91122000      18.76419000     -14.07409000
H       12.79303000      19.01135000     -13.80337000
H        8.58088000      17.23600000     -15.65224000
O        9.24671000      17.80923000     -16.02534000
H       10.05944000      17.32595000     -15.84057000
H       12.73788000      18.31374000     -17.39359000
O       12.52973000      17.74869000     -16.62115000
H       12.55324000      18.39174000     -15.89067000
