9
Properties=species:S:1:pos:R:3 frame=T 62=T |=T Written=T by=T MDAnalysis=T XYZWriter=T (release=T 2.4.3)=T pbc="F F F"
H      -13.18897000     -15.31488000       2.61787000
O      -12.82067000     -15.35857000       1.72728000
H      -12.69307000     -14.43258000       1.55771000
H      -14.59781000     -16.63126000      -1.58638000
O      -14.00075000     -16.79885000      -0.84760000
H      -13.86532000     -15.92562000      -0.46290000
H      -12.66457000     -17.63759000       0.59256000
O      -11.89315000     -18.24373000       0.49893000
H      -11.66795000     -18.46273000       1.41219000
