9
Properties=species:S:1:pos:R:3 frame=T 8=T |=T Written=T by=T MDAnalysis=T XYZWriter=T (release=T 2.4.3)=T pbc="F F F"
H      -17.08718000       9.25513000      15.14374000
O      -16.85894000       8.43812000      15.60045000
H      -15.89441000       8.37810000      15.47018000
H      -14.62142000       9.53106000      18.44788000
O      -14.47422000       9.98798000      17.62479000
H      -15.15128000      10.66081000      17.64990000
H      -16.78726000       8.25385000      18.82389000
O      -17.47971000       8.64045000      18.29615000
H      -17.25484000       8.30277000      17.43397000
