9
Properties=species:S:1:pos:R:3 frame=T 10=T |=T Written=T by=T MDAnalysis=T XYZWriter=T (release=T 2.4.3)=T pbc="F F F"
H       -5.05241000      14.45797000      11.15356000
O       -4.39477000      14.92000000      10.61116000
H       -3.57384000      14.82710000      11.11768000
H       -2.86776000      14.45025000      13.24456000
O       -1.96804000      14.54574000      12.93825000
H       -1.58703000      13.70789000      13.22394000
H       -1.19473000      11.70228000      13.68097000
O       -0.66996000      12.44914000      14.04182000
H       -1.17770000      12.70854000      14.81626000
