9
Properties=species:S:1:pos:R:3 frame=T 13=T |=T Written=T by=T MDAnalysis=T XYZWriter=T (release=T 2.4.3)=T pbc="F F F"
H       -4.40367000      12.97700000       2.70322000
O       -3.92625000      12.94081000       3.55694000
H       -4.68139000      13.05322000       4.20533000
H       -5.39036000      12.87029000       6.23117000
O       -5.72796000      12.58528000       5.37423000
H       -6.21425000      11.76646000       5.58923000
H       -6.24233000      11.18529000       8.52476000
O       -5.95642000      11.97728000       8.06991000
H       -5.32401000      12.42753000       8.65923000
