9
Properties=species:S:1:pos:R:3 frame=T 56=T |=T Written=T by=T MDAnalysis=T XYZWriter=T (release=T 2.4.3)=T pbc="F F F"
H      -16.00010000      19.37364000       6.40695000
O      -16.38997000      18.50973000       6.53299000
H      -16.07438000      17.92148000       5.82359000
H      -18.92872000      19.10605000       4.68436000
O      -18.31414000      18.65416000       4.10143000
H      -17.55691000      19.23616000       4.00856000
H      -17.44081000      15.60304000       8.32881000
O      -17.79230000      15.47263000       7.43126000
H      -18.46978000      16.14106000       7.38822000
