9
Properties=species:S:1:pos:R:3 frame=T 6=T |=T Written=T by=T MDAnalysis=T XYZWriter=T (release=T 2.4.3)=T pbc="F F F"
H        8.86792000       0.98229000      -6.21524000
O        7.95155000       0.91858000      -6.52844000
H        8.06901000       1.02678000      -7.47681000
H        7.08796000       3.66725000      -5.04197000
O        7.07547000       3.51000000      -6.02008000
H        7.36805000       2.57879000      -6.11157000
H       11.73577000      -0.02566000      -4.51521000
O       10.82389000      -0.00954000      -4.81255000
H       10.62983000       0.92830000      -4.91709000
