9
Properties=species:S:1:pos:R:3 frame=T 62=T |=T Written=T by=T MDAnalysis=T XYZWriter=T (release=T 2.4.3)=T pbc="F F F"
H       -6.72803000      -4.88857000       0.52423000
O       -6.35680000      -4.56000000       1.38027000
H       -7.04687000      -4.75774000       2.00360000
H       -7.66355000      -6.02521000      -0.81568000
O       -7.17663000      -5.24875000      -1.05675000
H       -7.87565000      -4.59656000      -1.33648000
H       -8.52601000      -2.89295000      -0.08765000
O       -7.69860000      -2.45833000       0.22658000
H       -7.18937000      -3.19620000       0.59524000
