9
Properties=species:S:1:pos:R:3 frame=T 55=T |=T Written=T by=T MDAnalysis=T XYZWriter=T (release=T 2.4.3)=T pbc="F F F"
H        7.44258000      -8.69517000       2.39094000
O        6.76462000      -9.19021000       1.90436000
H        7.27032000      -9.85161000       1.43091000
H       10.30938000     -11.19021000       2.02594000
O        9.87198000     -10.37813000       1.71715000
H        9.49611000     -10.05812000       2.53694000
H       11.92579000     -11.65232000      -1.03341000
O       11.02237000     -11.76851000      -0.75734000
H       11.02290000     -11.22461000       0.02566000
