9
Properties=species:S:1:pos:R:3 frame=T 4=T |=T Written=T by=T MDAnalysis=T XYZWriter=T (release=T 2.4.3)=T pbc="F F F"
H      -15.42080000      -1.62829000      -7.84132000
O      -15.70853000      -2.47828000      -8.16081000
H      -16.06018000      -2.33129000      -9.05216000
H      -17.88862000      -2.89109000      -5.50634000
O      -17.13623000      -3.45183000      -5.60759000
H      -16.84473000      -3.25843000      -6.50198000
H      -18.16878000      -3.13937000      -8.75442000
O      -18.23835000      -2.31546000      -9.21786000
H      -18.40922000      -1.66494000      -8.52760000
