9
Properties=species:S:1:pos:R:3 frame=T 0=T |=T Written=T by=T MDAnalysis=T XYZWriter=T (release=T 2.4.3)=T pbc="F F F"
H       -0.65317000      13.54974000      16.54229000
O        0.03988000      12.91024000      16.60972000
H        0.07011000      12.47058000      15.76444000
H        0.93207000      11.79118000      13.72980000
O        0.02801000      11.58986000      13.98862000
H        0.16309000      10.87286000      14.61754000
H       -1.10555000      11.37828000      10.62714000
O       -0.26624000      11.06766000      11.03578000
H       -0.38414000      11.30667000      11.95901000
