9
Properties=species:S:1:pos:R:3 frame=T 18=T |=T Written=T by=T MDAnalysis=T XYZWriter=T (release=T 2.4.3)=T pbc="F F F"
H       -0.28160000      -6.16773000       3.06353000
O       -1.09262000      -5.61206000       3.13684000
H       -1.43987000      -5.77063000       4.02872000
H       -1.62597000      -4.98115000       1.30014000
O       -1.12110000      -5.30766000       0.52714000
H       -0.25375000      -5.53412000       0.86574000
H       -0.53385000      -4.02169000       3.53976000
O       -0.35231000      -3.13327000       3.82390000
H       -0.56779000      -2.57951000       3.05219000
