9
Properties=species:S:1:pos:R:3 frame=T 88=T |=T Written=T by=T MDAnalysis=T XYZWriter=T (release=T 2.4.3)=T pbc="F F F"
H       10.53948000       3.80542000       9.64387000
O       10.01744000       4.40314000      10.14541000
H       10.71187000       4.93375000      10.54158000
H       12.09665000       5.69618000      11.28869000
O       11.67873000       6.49869000      10.94507000
H       12.04343000       6.62203000      10.06597000
H       12.40880000       7.58761000      12.13462000
O       12.60655000       8.16051000      12.88255000
H       12.21188000       7.64564000      13.59382000
