9
Properties=species:S:1:pos:R:3 frame=T 59=T |=T Written=T by=T MDAnalysis=T XYZWriter=T (release=T 2.4.3)=T pbc="F F F"
H      -14.76881000       9.60773000      12.40661000
O      -15.19351000       8.85700000      12.80726000
H      -14.42971000       8.57473000      13.32870000
H      -13.38221000       8.38401000      11.61143000
O      -12.60315000       8.97967000      11.48812000
H      -11.92696000       8.45394000      11.96787000
H      -15.22787000       9.81403000      15.67612000
O      -16.01275000       9.34131000      15.34349000
H      -15.92206000       9.36622000      14.40035000
