9
Properties=species:S:1:pos:R:3 frame=T 17=T |=T Written=T by=T MDAnalysis=T XYZWriter=T (release=T 2.4.3)=T pbc="F F F"
H       17.02692000     -15.06719000      -9.34808000
O       16.37773000     -14.39004000      -9.08955000
H       16.38210000     -14.38232000      -8.13771000
H       15.01736000     -11.49365000      -8.97592000
O       14.92052000     -11.56293000      -7.99429000
H       15.84844000     -11.69585000      -7.68178000
H       14.35447000     -14.79518000      -5.65744000
O       14.93034000     -14.56843000      -6.40280000
H       14.81055000     -13.61576000      -6.48465000
