9
Properties=species:S:1:pos:R:3 frame=T 77=T |=T Written=T by=T MDAnalysis=T XYZWriter=T (release=T 2.4.3)=T pbc="F F F"
H       16.50530000     -16.72643000      10.96184000
O       15.69677000     -16.44209000      11.42082000
H       15.24181000     -15.86648000      10.82491000
H       16.88131000     -14.38888000      11.55209000
O       17.50304000     -13.64549000      11.34010000
H       17.40677000     -13.59489000      10.36746000
H       14.05983000     -16.23504000       7.99374000
O       13.88243000     -16.39312000       8.91898000
H       12.94237000     -16.44341000       8.96696000
