9
Properties=species:S:1:pos:R:3 frame=T 30=T |=T Written=T by=T MDAnalysis=T XYZWriter=T (release=T 2.4.3)=T pbc="F F F"
H      -14.30857000      -6.67698000     -10.31581000
O      -15.22837000      -6.49125000     -10.06429000
H      -15.67154000      -6.72221000     -10.86544000
H      -14.37684000      -4.25528000     -11.74581000
O      -14.83691000      -3.68541000     -11.13678000
H      -14.10994000      -3.31123000     -10.63269000
H      -15.95986000      -4.57650000      -9.82109000
O      -16.70255000      -4.31027000      -9.26842000
H      -17.31189000      -5.05636000      -9.35037000
