9
Properties=species:S:1:pos:R:3 frame=T 40=T |=T Written=T by=T MDAnalysis=T XYZWriter=T (release=T 2.4.3)=T pbc="F F F"
H      -16.19998000       2.82337000     -17.18157000
O      -15.26902000       3.00893000     -17.02816000
H      -14.94595000       2.33281000     -16.42551000
H      -18.45911000       6.01534000     -14.94613000
O      -18.10417000       5.28712000     -15.53794000
H      -18.76852000       4.57895000     -15.42049000
H      -18.31206000       3.90057000     -18.30043000
O      -17.87894000       3.05227000     -18.18803000
H      -18.61688000       2.43124000     -18.04488000
