9
Properties=species:S:1:pos:R:3 frame=T 41=T |=T Written=T by=T MDAnalysis=T XYZWriter=T (release=T 2.4.3)=T pbc="F F F"
H      -10.38140000     -13.47798000      -1.76716000
O       -9.80109000     -12.87937000      -1.25238000
H      -10.38975000     -12.13110000      -1.01145000
H      -11.51259000     -13.21845000      -5.41636000
O      -11.27776000     -14.04400000      -5.82489000
H      -10.75204000     -14.49749000      -5.13554000
H      -10.29965000     -15.52263000      -3.27934000
O      -10.98970000     -15.08104000      -2.80515000
H      -11.43972000     -15.81178000      -2.32899000
