9
Properties=species:S:1:pos:R:3 frame=T 50=T |=T Written=T by=T MDAnalysis=T XYZWriter=T (release=T 2.4.3)=T pbc="F F F"
H        5.91431000      13.33682000      -2.49987000
O        6.85012000      13.47867000      -2.62393000
H        6.96928000      14.45092000      -2.53571000
H        5.78103000      15.84241000      -3.65917000
O        5.45635000      15.90620000      -2.75652000
H        4.98134000      15.06673000      -2.67441000
H        7.57228000      14.21865000      -0.89069000
O        7.73790000      14.87643000      -0.22319000
H        8.41703000      15.44402000      -0.61297000
