9
Properties=species:S:1:pos:R:3 frame=T 94=T |=T Written=T by=T MDAnalysis=T XYZWriter=T (release=T 2.4.3)=T pbc="F F F"
H      -10.73531000     -16.66776000      -6.53286000
O      -11.55955000     -17.13849000      -6.62804000
H      -11.37292000     -18.00742000      -6.98943000
H      -12.49721000     -18.25412000      -9.00654000
O      -11.85823000     -17.74454000      -9.48956000
H      -12.40467000     -17.17292000     -10.05124000
H      -11.48019000     -14.93456000      -9.27027000
O      -10.56867000     -14.90770000      -8.94313000
H      -10.52918000     -15.59482000      -8.29303000
