9
Properties=species:S:1:pos:R:3 frame=T 10=T |=T Written=T by=T MDAnalysis=T XYZWriter=T (release=T 2.4.3)=T pbc="F F F"
H       -9.61371000       4.39197000       7.34050000
O       -8.76449000       4.87633000       7.38291000
H       -8.47955000       4.78155000       8.30873000
H       -5.10043000       6.00981000       6.84316000
O       -4.50766000       6.42415000       7.45262000
H       -3.83454000       5.79582000       7.64793000
H       -7.45048000       5.39461000       6.12442000
O       -6.69577000       5.60533000       5.51753000
H       -6.97688000       6.43398000       5.07500000
