9
Properties=species:S:1:pos:R:3 frame=T 41=T |=T Written=T by=T MDAnalysis=T XYZWriter=T (release=T 2.4.3)=T pbc="F F F"
H      -18.29778000       9.54190000      -5.89491000
O      -18.14537000       9.99855000      -6.70642000
H      -19.00060000       9.90179000      -7.14692000
H      -16.20001000      10.25488000      -6.99022000
O      -15.30826000      10.58809000      -6.98232000
H      -15.27944000      11.20226000      -6.24478000
H      -18.14550000      13.77734000      -6.20072000
O      -17.78101000      12.88719000      -6.19449000
H      -18.50099000      12.30554000      -5.91961000
