9
Properties=species:S:1:pos:R:3 frame=T 73=T |=T Written=T by=T MDAnalysis=T XYZWriter=T (release=T 2.4.3)=T pbc="F F F"
H       13.64790000     -13.25925000      14.28210000
O       12.97362000     -13.59247000      14.89178000
H       12.51761000     -14.31294000      14.43185000
H       11.61839000      -9.05609000      15.24603000
O       11.64139000      -8.92424000      14.31884000
H       12.05011000      -9.71662000      13.96235000
H       12.74262000     -11.91069000      14.38883000
O       13.08931000     -11.21146000      13.80466000
H       12.87832000     -11.54498000      12.92808000
