9
Properties=species:S:1:pos:R:3 frame=T 21=T |=T Written=T by=T MDAnalysis=T XYZWriter=T (release=T 2.4.3)=T pbc="F F F"
H       -5.19649000      -9.80786000      -5.98895000
O       -5.49676000     -10.73414000      -6.07895000
H       -5.50492000     -10.78823000      -7.05428000
H       -3.94179000      -8.10831000      -6.92961000
O       -4.06715000      -8.64436000      -6.12066000
H       -3.88930000      -8.00136000      -5.42081000
H       -7.16717000     -11.20952000      -5.75882000
O       -8.12088000     -11.02328000      -5.71884000
H       -8.38337000     -11.43883000      -4.89061000
