9
Properties=species:S:1:pos:R:3 frame=T 83=T |=T Written=T by=T MDAnalysis=T XYZWriter=T (release=T 2.4.3)=T pbc="F F F"
H       17.86581000      18.40347000      -1.53420000
O       18.77133000      18.21553000      -1.23088000
H       19.23957000      19.11024000      -1.18021000
H       15.69753000      16.54464000      -0.68359000
O       16.26908000      15.92251000      -1.13307000
H       16.54860000      15.24388000      -0.48096000
H       15.91749000      18.78271000       0.99944000
O       15.38932000      18.06574000       1.38737000
H       15.98518000      17.34400000       1.66506000
