9
Properties=species:S:1:pos:R:3 frame=T 51=T |=T Written=T by=T MDAnalysis=T XYZWriter=T (release=T 2.4.3)=T pbc="F F F"
H       -0.35428000     -17.52773000      14.63920000
O       -0.49977000     -18.09937000      13.89216000
H       -1.42747000     -18.29330000      13.98160000
H        0.92928000     -15.88966000      16.11028000
O        0.29895000     -16.59850000      16.24111000
H       -0.31715000     -16.22976000      16.87156000
H       -3.19028000     -19.10868000      13.47557000
O       -3.11264000     -18.69392000      14.34170000
H       -3.75330000     -17.98751000      14.28899000
