9
Properties=species:S:1:pos:R:3 frame=T 45=T |=T Written=T by=T MDAnalysis=T XYZWriter=T (release=T 2.4.3)=T pbc="F F F"
H       13.24190000     -18.64319000      18.31952000
O       12.45251000     -18.30596000      17.84546000
H       11.86945000     -17.98375000      18.54081000
H       14.05389000     -17.17463000      17.25956000
O       14.98094000     -16.84726000      17.14978000
H       15.07589000     -16.29421000      17.90567000
H        9.85835000     -17.33197000      16.96809000
O        9.64089000     -16.76508000      17.74380000
H        8.81916000     -17.11402000      18.09700000
