9
Properties=species:S:1:pos:R:3 frame=T 96=T |=T Written=T by=T MDAnalysis=T XYZWriter=T (release=T 2.4.3)=T pbc="F F F"
H       14.34774000     -12.32926000     -17.53050000
O       14.99479000     -11.66284000     -17.29439000
H       14.52036000     -11.11441000     -16.61596000
H       13.44606000     -10.06851000     -15.28314000
O       13.94363000      -9.74069000     -16.03086000
H       13.31649000      -9.90504000     -16.74432000
H       11.82839000     -11.47336000     -17.37276000
O       11.52194000     -10.57379000     -17.24968000
H       11.06427000     -10.45198000     -18.08973000
