9
Properties=species:S:1:pos:R:3 frame=T 72=T |=T Written=T by=T MDAnalysis=T XYZWriter=T (release=T 2.4.3)=T pbc="F F F"
H        5.24187000     -17.62051000     -18.11723000
O        5.89112000     -16.89825000     -17.92678000
H        6.69911000     -17.39673000     -17.78662000
H        5.31697000     -16.33749000     -14.91452000
O        4.85261000     -17.13736000     -14.66363000
H        5.16063000     -17.77670000     -15.30015000
H        5.15971000     -14.21028000     -16.55303000
O        5.99903000     -14.62602000     -16.30846000
H        6.05500000     -15.37280000     -16.91085000
