9
Properties=species:S:1:pos:R:3 frame=T 2=T |=T Written=T by=T MDAnalysis=T XYZWriter=T (release=T 2.4.3)=T pbc="F F F"
H       14.01411000      -2.76170000     -15.78688000
O       14.70434000      -3.23788000     -16.26283000
H       14.23132000      -3.64030000     -16.98687000
H       15.62289000      -3.33586000     -14.53177000
O       16.04599000      -3.46436000     -13.67169000
H       15.34037000      -3.77938000     -13.13227000
H       18.35571000      -0.77084000     -14.27003000
O       18.13128000      -1.38008000     -13.55133000
H       17.70003000      -2.09692000     -14.03715000
