9
Properties=species:S:1:pos:R:3 frame=T 0=T |=T Written=T by=T MDAnalysis=T XYZWriter=T (release=T 2.4.3)=T pbc="F F F"
H       -2.55223000      18.08161000       9.23363000
O       -1.89522000      18.71535000       9.60048000
H       -1.35660000      18.84934000       8.82442000
H       -0.47625000      15.93711000       9.36774000
O        0.02518000      15.41025000       8.69728000
H       -0.66914000      14.79770000       8.36066000
H       -0.63492000      17.68785000      11.17771000
O       -0.34482000      16.81216000      11.37198000
H        0.56340000      16.90878000      11.69736000
