9
Properties=species:S:1:pos:R:3 frame=T 67=T |=T Written=T by=T MDAnalysis=T XYZWriter=T (release=T 2.4.3)=T pbc="F F F"
H       -8.59208000      -4.39413000       5.76734000
O       -8.33811000      -4.14075000       4.88319000
H       -7.36552000      -4.25856000       4.92565000
H       -4.68869000      -4.07019000       3.99068000
O       -5.58680000      -3.76333000       3.88150000
H       -5.44126000      -2.86727000       3.56445000
H       -5.58421000      -2.34440000       6.05603000
O       -5.83218000      -1.41381000       6.11168000
H       -6.22892000      -1.21661000       5.24944000
