9
Properties=species:S:1:pos:R:3 frame=T 49=T |=T Written=T by=T MDAnalysis=T XYZWriter=T (release=T 2.4.3)=T pbc="F F F"
H       18.00779000      12.24539000      11.52364000
O       17.59772000      12.25515000      10.65350000
H       17.79207000      13.18577000      10.40317000
H       17.36320000      11.80737000      14.18009000
O       18.11416000      11.28804000      13.90881000
H       18.90307000      11.79950000      14.06473000
H       18.81635000       9.29539000      15.91481000
O       18.35621000       8.64834000      15.38337000
H       18.32963000       9.16438000      14.57860000
