9
Properties=species:S:1:pos:R:3 frame=T 64=T |=T Written=T by=T MDAnalysis=T XYZWriter=T (release=T 2.4.3)=T pbc="F F F"
H        9.82515000     -13.52133000       9.32609000
O        9.04899000     -13.17286000       8.87032000
H        9.11152000     -13.69714000       8.04912000
H       10.48353000     -13.89079000       6.50182000
O       11.24328000     -13.34668000       6.19949000
H       11.96965000     -13.81173000       6.65025000
H       12.08179000     -14.51170000       3.30440000
O       11.49031000     -15.06348000       3.86423000
H       10.97979000     -14.43175000       4.34906000
