9
Properties=species:S:1:pos:R:3 frame=T 96=T |=T Written=T by=T MDAnalysis=T XYZWriter=T (release=T 2.4.3)=T pbc="F F F"
H       13.93071000      -8.12886000      14.19888000
O       14.68132000      -7.51849000      14.30711000
H       14.28704000      -6.69321000      14.63343000
H       17.36874000      -6.75500000      19.35273000
O       17.30709000      -5.82866000      19.08001000
H       17.01634000      -5.85886000      18.13778000
H       15.78001000      -5.87449000      16.45765000
O       15.35632000      -6.68527000      16.72101000
H       15.06410000      -7.07150000      15.88524000
