9
Properties=species:S:1:pos:R:3 frame=T 68=T |=T Written=T by=T MDAnalysis=T XYZWriter=T (release=T 2.4.3)=T pbc="F F F"
H       14.62258000     -12.96954000      -5.35155000
O       13.68654000     -12.94129000      -5.08216000
H       13.26807000     -12.93240000      -5.95907000
H       13.39559000     -11.20915000      -3.97187000
O       13.00490000     -10.61216000      -3.33065000
H       12.36900000     -11.12993000      -2.83729000
H       14.29447000      -7.59381000      -4.50908000
O       14.43515000      -8.55524000      -4.63924000
H       13.77070000      -8.96364000      -4.05560000
