9
Properties=species:S:1:pos:R:3 frame=T 74=T |=T Written=T by=T MDAnalysis=T XYZWriter=T (release=T 2.4.3)=T pbc="F F F"
H       -0.93205000      12.45699000      -6.95832000
O       -1.58636000      13.00106000      -7.34847000
H       -1.17225000      13.81999000      -7.55308000
H        0.05571000      15.20427000      -8.90098000
O       -0.91278000      15.37692000      -8.81332000
H       -1.32410000      14.77249000      -9.46240000
H        1.99226000      16.28115000      -8.72453000
O        2.05611000      15.99282000      -9.65920000
H        3.02216000      16.03351000      -9.81272000
