9
Properties=species:S:1:pos:R:3 frame=T 37=T |=T Written=T by=T MDAnalysis=T XYZWriter=T (release=T 2.4.3)=T pbc="F F F"
H       11.21863000       2.98066000     -11.30887000
O       11.42758000       2.47529000     -10.50953000
H       11.49083000       1.54725000     -10.87179000
H       11.54125000      -0.63911000     -12.02491000
O       11.03548000      -0.14946000     -11.34711000
H       11.09252000      -0.70073000     -10.54319000
H        9.75987000      -2.80308000     -12.77231000
O        9.36826000      -2.36150000     -12.01361000
H        9.85406000      -1.53279000     -11.92804000
