9
Properties=species:S:1:pos:R:3 frame=T 40=T |=T Written=T by=T MDAnalysis=T XYZWriter=T (release=T 2.4.3)=T pbc="F F F"
H      -11.93586000     -12.92846000     -17.86009000
O      -11.25388000     -13.63207000     -17.98521000
H      -11.69678000     -14.45382000     -18.17447000
H       -8.41777000     -13.94727000     -13.07249000
O       -7.99493000     -13.27827000     -13.63721000
H       -8.58877000     -13.21480000     -14.40968000
H       -9.88973000     -13.35406000     -16.57948000
O       -9.01534000     -13.37040000     -16.16866000
H       -8.68973000     -14.20693000     -16.49835000
