9
Properties=species:S:1:pos:R:3 frame=T 6=T |=T Written=T by=T MDAnalysis=T XYZWriter=T (release=T 2.4.3)=T pbc="F F F"
H       -7.24912000      -3.58150000     -12.82807000
O       -8.00658000      -4.07491000     -13.07803000
H       -7.74711000      -4.97177000     -12.85371000
H       -6.89772000      -4.96369000     -10.89361000
O       -5.99885000      -5.30579000     -11.08691000
H       -5.44524000      -4.75690000     -10.51785000
H       -8.24372000      -3.55176000      -9.61144000
O       -8.30814000      -4.31656000     -10.21559000
H       -8.23052000      -3.90554000     -11.07352000
