9
Properties=species:S:1:pos:R:3 frame=T 59=T |=T Written=T by=T MDAnalysis=T XYZWriter=T (release=T 2.4.3)=T pbc="F F F"
H        7.89318000      -4.06395000      14.93169000
O        7.75327000      -3.96599000      15.87825000
H        8.17798000      -3.13666000      16.07148000
H        8.88602000      -0.20842000      17.17957000
O        9.53490000      -0.08792000      17.91246000
H       10.41564000      -0.37129000      17.59629000
H        9.11250000      -2.99226000      18.65352000
O        9.68992000      -3.63516000      18.24751000
H        9.76349000      -3.29489000      17.32006000
