9
Properties=species:S:1:pos:R:3 frame=T 51=T |=T Written=T by=T MDAnalysis=T XYZWriter=T (release=T 2.4.3)=T pbc="F F F"
H        3.29404000      -7.78493000     -14.60132000
O        2.62654000      -7.65679000     -15.29041000
H        2.94597000      -8.17619000     -16.04294000
H        4.43438000      -7.53229000     -12.95680000
O        4.80994000      -7.95267000     -13.75264000
H        5.33156000      -8.67556000     -13.35011000
H        6.04277000     -10.69072000     -12.31051000
O        6.37803000      -9.79048000     -12.39706000
H        7.16383000      -9.95904000     -12.93797000
