9
Properties=species:S:1:pos:R:3 frame=T 1=T |=T Written=T by=T MDAnalysis=T XYZWriter=T (release=T 2.4.3)=T pbc="F F F"
H        3.08874000      -5.90142000      16.93198000
O        3.30621000      -6.18697000      16.04048000
H        3.65135000      -5.37351000      15.64034000
H        5.32480000      -3.32354000      18.01671000
O        4.86427000      -2.44884000      17.99602000
H        4.04849000      -2.67825000      17.57364000
H        6.68431000      -5.07760000      17.51334000
O        6.47877000      -4.94516000      18.44717000
H        5.79644000      -5.57412000      18.65294000
