9
Properties=species:S:1:pos:R:3 frame=T 5=T |=T Written=T by=T MDAnalysis=T XYZWriter=T (release=T 2.4.3)=T pbc="F F F"
H        1.09647000     -14.66636000       9.83491000
O        2.05460000     -14.52050000       9.76072000
H        2.37297000     -15.44707000       9.75761000
H        2.54789000     -12.70861000      10.00566000
O        2.81145000     -11.85710000      10.35203000
H        2.34703000     -11.28182000       9.74651000
H        3.31907000     -12.99488000       7.35401000
O        2.35268000     -13.18679000       7.23648000
H        2.25911000     -13.98867000       7.77376000
