9
Properties=species:S:1:pos:R:3 frame=T 4=T |=T Written=T by=T MDAnalysis=T XYZWriter=T (release=T 2.4.3)=T pbc="F F F"
H        1.00820000       0.35642000       5.33972000
O        1.42155000       1.09750000       5.78592000
H        0.67718000       1.57924000       6.09831000
H        0.08759000      -2.74909000       5.51859000
O        0.49286000      -2.66651000       4.64464000
H        1.43683000      -2.66012000       4.86000000
H        0.61567000      -0.99869000       3.40580000
O        1.19294000      -0.79845000       2.68879000
H        0.95182000       0.07669000       2.39032000
