9
Properties=species:S:1:pos:R:3 frame=T 73=T |=T Written=T by=T MDAnalysis=T XYZWriter=T (release=T 2.4.3)=T pbc="F F F"
H        4.31661000       9.77624000       2.49529000
O        3.71617000       9.01589000       2.54107000
H        3.09795000       9.17931000       1.80449000
H        5.18832000      10.15433000       0.33321000
O        5.03291000      11.10712000       0.43271000
H        4.06976000      11.17817000       0.31351000
H        4.73380000       8.05599000      -1.44338000
O        4.73516000       8.15936000      -0.49621000
H        5.54950000       7.72909000      -0.23248000
