9
Properties=species:S:1:pos:R:3 frame=T 57=T |=T Written=T by=T MDAnalysis=T XYZWriter=T (release=T 2.4.3)=T pbc="F F F"
H       11.25804000      -4.54150000      -2.90546000
O       11.14951000      -4.08053000      -3.71688000
H       11.73660000      -4.56681000      -4.30997000
H       12.63903000      -5.23400000       0.74092000
O       12.85736000      -5.79416000       1.50179000
H       13.75837000      -6.08191000       1.25766000
H       13.18441000      -4.08736000      -1.10160000
O       12.49756000      -4.69633000      -1.12983000
H       12.90690000      -5.56036000      -1.33024000
