9
Properties=species:S:1:pos:R:3 frame=T 74=T |=T Written=T by=T MDAnalysis=T XYZWriter=T (release=T 2.4.3)=T pbc="F F F"
H      -18.91951000     -10.06071000     -11.08768000
O      -18.02038000     -10.16772000     -11.38847000
H      -17.89408000      -9.36594000     -11.91682000
H      -16.53745000      -7.44484000     -13.44760000
O      -16.85679000      -8.20521000     -12.93965000
H      -16.32226000      -8.87566000     -13.36288000
H      -17.02621000     -10.70614000     -13.02927000
O      -16.23450000     -10.96640000     -13.50948000
H      -16.33055000     -10.58364000     -14.39664000
