9
Properties=species:S:1:pos:R:3 frame=T 39=T |=T Written=T by=T MDAnalysis=T XYZWriter=T (release=T 2.4.3)=T pbc="F F F"
H       -8.40186000     -15.72318000      -7.13976000
O       -7.49292000     -15.89278000      -6.86652000
H       -7.43652000     -15.62785000      -5.94183000
H      -10.23376000     -15.93396000      -5.58037000
O      -10.29323000     -14.97126000      -5.64569000
H       -9.48886000     -14.64155000      -5.22561000
H      -10.09330000     -15.06196000      -7.71281000
O       -9.55738000     -14.97563000      -8.52556000
H       -9.16765000     -14.09697000      -8.45685000
