9
Properties=species:S:1:pos:R:3 frame=T 41=T |=T Written=T by=T MDAnalysis=T XYZWriter=T (release=T 2.4.3)=T pbc="F F F"
H       12.74487000       6.78473000      -2.73462000
O       13.19513000       6.80225000      -1.87609000
H       13.31636000       7.70883000      -1.57335000
H       14.47411000       8.97104000       0.88719000
O       14.20548000       8.17968000       0.37699000
H       14.97401000       7.58131000       0.57968000
H       11.13520000       6.70960000       0.44945000
O       11.28782000       7.58388000       0.81416000
H       12.22897000       7.62185000       0.91751000
