9
Properties=species:S:1:pos:R:3 frame=T 37=T |=T Written=T by=T MDAnalysis=T XYZWriter=T (release=T 2.4.3)=T pbc="F F F"
H       16.97457000      -6.80048000       0.11463000
O       16.45286000      -7.37384000       0.70043000
H       16.40708000      -6.94287000       1.55540000
H       17.82919000      -8.71828000       0.53568000
O       18.70207000      -9.12055000       0.57996000
H       19.23702000      -8.52439000       0.03427000
H       18.05205000      -7.59734000      -2.29320000
O       18.66334000      -7.06050000      -1.82375000
H       18.24692000      -6.20649000      -1.69355000
