9
Properties=species:S:1:pos:R:3 frame=T 55=T |=T Written=T by=T MDAnalysis=T XYZWriter=T (release=T 2.4.3)=T pbc="F F F"
H       -1.35945000      -4.70366000      13.08038000
O       -0.46091000      -5.10034000      13.01208000
H        0.07452000      -4.44908000      12.52591000
H        2.42428000      -2.90646000      13.12342000
O        1.54460000      -2.54458000      12.96047000
H        1.66251000      -2.23093000      12.02852000
H       -0.26603000      -5.67476000      11.03920000
O        0.00444000      -5.59456000      10.12020000
H       -0.79959000      -5.58193000       9.65153000
