9
Properties=species:S:1:pos:R:3 frame=T 18=T |=T Written=T by=T MDAnalysis=T XYZWriter=T (release=T 2.4.3)=T pbc="F F F"
H       -2.59989000      16.40378000     -11.04004000
O       -2.25830000      15.67711000     -11.56268000
H       -2.20172000      14.98872000     -10.88398000
H       -5.10637000      15.77010000     -12.43227000
O       -5.18594000      15.04996000     -13.04463000
H       -4.27013000      14.75557000     -13.16758000
H       -2.43277000      14.56582000     -12.99593000
O       -2.79440000      14.10648000     -13.75385000
H       -2.73640000      13.18985000     -13.50033000
