9
Properties=species:S:1:pos:R:3 frame=T 24=T |=T Written=T by=T MDAnalysis=T XYZWriter=T (release=T 2.4.3)=T pbc="F F F"
H      -13.48352000      16.21294000     -18.19966000
O      -13.53648000      16.47748000     -17.28417000
H      -14.45264000      16.22057000     -17.08219000
H      -14.05724000      18.51958000     -16.35288000
O      -13.56991000      19.22354000     -15.89311000
H      -12.66079000      19.11289000     -16.24222000
H      -16.79284000      17.73083000     -16.46951000
O      -16.53140000      18.26148000     -15.69735000
H      -16.44912000      19.15979000     -16.12196000
