9
Properties=species:S:1:pos:R:3 frame=T 31=T |=T Written=T by=T MDAnalysis=T XYZWriter=T (release=T 2.4.3)=T pbc="F F F"
H      -17.38790000       7.29762000      17.65199000
O      -16.60092000       6.91511000      17.30327000
H      -16.67285000       5.94660000      17.45788000
H      -13.30944000       2.48510000      15.69706000
O      -13.37204000       3.37749000      16.09062000
H      -14.19918000       3.43262000      16.55561000
H      -15.16082000       5.13083000      18.30564000
O      -15.25009000       4.45890000      17.62520000
H      -16.09199000       3.99793000      17.82970000
