9
Properties=species:S:1:pos:R:3 frame=T 28=T |=T Written=T by=T MDAnalysis=T XYZWriter=T (release=T 2.4.3)=T pbc="F F F"
H       -1.36667000      -6.30141000       8.57331000
O       -0.61964000      -6.09857000       7.99630000
H       -0.31368000      -5.28830000       8.41229000
H        0.97142000      -3.63519000       9.32099000
O        0.01535000      -3.61744000       9.47779000
H       -0.30313000      -2.98560000       8.82894000
H       -0.73691000      -2.71212000      11.41840000
O       -1.37248000      -2.87890000      12.10645000
H       -0.79493000      -3.19300000      12.83787000
