9
Properties=species:S:1:pos:R:3 frame=T 47=T |=T Written=T by=T MDAnalysis=T XYZWriter=T (release=T 2.4.3)=T pbc="F F F"
H        4.83518000     -11.32162000      -5.80369000
O        5.32166000     -12.17772000      -5.68825000
H        4.65440000     -12.84020000      -5.44700000
H        6.58022000     -11.35028000      -4.33736000
O        7.36164000     -11.17146000      -3.77686000
H        7.83322000     -10.42223000      -4.19588000
H        4.61850000     -10.54504000      -2.92016000
O        4.83124000      -9.61346000      -3.02009000
H        5.69042000      -9.63450000      -3.44723000
