9
Properties=species:S:1:pos:R:3 frame=T 95=T |=T Written=T by=T MDAnalysis=T XYZWriter=T (release=T 2.4.3)=T pbc="F F F"
H      -13.99317000      10.79106000     -11.71986000
O      -13.18515000      10.28012000     -11.82847000
H      -12.69050000      10.78764000     -12.46311000
H      -10.71740000      10.08816000      -9.47741000
O      -11.31624000      10.71036000      -9.86548000
H      -12.01122000      10.16567000     -10.26099000
H      -15.20608000      10.73126000     -13.25470000
O      -15.54624000      10.90703000     -14.13944000
H      -16.48659000      10.81552000     -13.98346000
