9
Properties=species:S:1:pos:R:3 frame=T 85=T |=T Written=T by=T MDAnalysis=T XYZWriter=T (release=T 2.4.3)=T pbc="F F F"
H       -4.59138000     -14.27014000      16.64358000
O       -4.75926000     -14.68143000      17.51734000
H       -4.03944000     -15.33414000      17.60619000
H       -5.13642000     -10.75141000      16.13366000
O       -4.42246000     -10.23916000      15.72530000
H       -3.71766000     -10.25976000      16.40738000
H       -3.19063000     -13.54927000      14.74184000
O       -4.09170000     -13.79515000      15.01956000
H       -4.61388000     -12.98604000      14.95444000
