9
Properties=species:S:1:pos:R:3 frame=T 20=T |=T Written=T by=T MDAnalysis=T XYZWriter=T (release=T 2.4.3)=T pbc="F F F"
H       15.92545000      15.54374000      14.58392000
O       15.36996000      16.22406000      15.01097000
H       15.62971000      16.18585000      15.94540000
H       15.68589000      15.55879000      18.46464000
O       15.29124000      16.08427000      17.73295000
H       14.61776000      15.44856000      17.40952000
H       14.49863000      18.49250000      17.47706000
O       14.45048000      19.39634000      17.11538000
H       13.57012000      19.47742000      16.74310000
