9
Properties=species:S:1:pos:R:3 frame=T 12=T |=T Written=T by=T MDAnalysis=T XYZWriter=T (release=T 2.4.3)=T pbc="F F F"
H       16.12698000       9.33756000       6.67046000
O       16.29410000      10.15612000       7.14600000
H       17.14191000       9.99436000       7.59227000
H       17.66972000      10.34705000       9.87283000
O       17.94718000       9.89608000       9.08802000
H       18.88559000       9.98553000       9.09375000
H       16.39400000      11.62693000      11.05266000
O       17.24219000      11.62692000      11.49561000
H       17.01674000      12.08223000      12.34035000
