9
Properties=species:S:1:pos:R:3 frame=T 84=T |=T Written=T by=T MDAnalysis=T XYZWriter=T (release=T 2.4.3)=T pbc="F F F"
H      -12.17651000      -4.45372000     -16.40194000
O      -12.63588000      -5.06980000     -16.98628000
H      -13.22818000      -4.50419000     -17.50173000
H      -11.43043000      -4.26102000     -18.14403000
O      -10.78111000      -4.11167000     -18.82846000
H      -10.62929000      -5.01636000     -19.16830000
H       -9.93543000      -8.48413000     -16.36709000
O       -9.90591000      -7.55798000     -16.69107000
H      -10.82774000      -7.30871000     -16.66906000
