9
Properties=species:S:1:pos:R:3 frame=T 10=T |=T Written=T by=T MDAnalysis=T XYZWriter=T (release=T 2.4.3)=T pbc="F F F"
H       -3.91144000      13.95894000      17.94288000
O       -4.44941000      14.07771000      17.16990000
H       -3.92170000      14.68654000      16.62026000
H       -6.08886000      15.11632000      18.01384000
O       -6.84169000      15.69865000      18.21111000
H       -6.77539000      16.41763000      17.53581000
H       -2.19943000      12.45861000      17.46186000
O       -2.33045000      12.18948000      16.54017000
H       -2.86815000      11.41003000      16.58508000
