9
Properties=species:S:1:pos:R:3 frame=T 32=T |=T Written=T by=T MDAnalysis=T XYZWriter=T (release=T 2.4.3)=T pbc="F F F"
H      -17.26816000      -9.73673000      14.80044000
O      -17.12845000      -9.20566000      13.99664000
H      -17.42218000      -9.81491000      13.32132000
H      -18.52416000     -10.94639000      16.96531000
O      -18.43201000     -10.34097000      16.19937000
H      -19.04672000      -9.62159000      16.35562000
H      -18.99597000      -7.43169000      14.17814000
O      -19.08859000      -6.74016000      14.84229000
H      -18.22691000      -6.70043000      15.31122000
