9
Properties=species:S:1:pos:R:3 frame=T 64=T |=T Written=T by=T MDAnalysis=T XYZWriter=T (release=T 2.4.3)=T pbc="F F F"
H      -18.82961000       3.10580000      -1.21097000
O      -18.12550000       3.46696000      -0.64735000
H      -18.52123000       4.16521000      -0.09992000
H      -14.74962000       2.36576000      -3.99516000
O      -15.11051000       2.40630000      -3.14621000
H      -14.32223000       2.57326000      -2.60454000
H      -16.94617000       1.92309000      -3.19472000
O      -17.87962000       1.72694000      -3.23850000
H      -17.88739000       1.16685000      -4.01373000
