9
Properties=species:S:1:pos:R:3 frame=T 45=T |=T Written=T by=T MDAnalysis=T XYZWriter=T (release=T 2.4.3)=T pbc="F F F"
H        4.24216000     -15.34457000      12.50763000
O        3.74978000     -15.32498000      13.34388000
H        2.95957000     -15.88207000      13.15074000
H        4.78814000     -17.51515000      14.12293000
O        4.94447000     -18.20873000      14.78197000
H        5.91429000     -18.16779000      14.97929000
H        6.56841000     -14.07297000      14.74356000
O        6.60056000     -15.02781000      14.79839000
H        5.83608000     -15.27237000      14.27669000
