9
Properties=species:S:1:pos:R:3 frame=T 15=T |=T Written=T by=T MDAnalysis=T XYZWriter=T (release=T 2.4.3)=T pbc="F F F"
H        9.85191000       8.11161000      15.04967000
O       10.55992000       7.63344000      14.56929000
H       10.45566000       6.76936000      15.01675000
H        9.51865000       5.34942000      15.48460000
O       10.32596000       5.35737000      16.00670000
H       10.81309000       4.57855000      15.66956000
H       10.38321000       6.57219000      17.64971000
O       10.80689000       7.23743000      18.20411000
H       10.45286000       8.04868000      17.83379000
