9
Properties=species:S:1:pos:R:3 frame=T 29=T |=T Written=T by=T MDAnalysis=T XYZWriter=T (release=T 2.4.3)=T pbc="F F F"
H        6.35643000      -7.15868000       6.94716000
O        5.47644000      -6.75945000       6.97527000
H        5.61301000      -5.79678000       7.02037000
H        7.94092000      -5.10376000       8.32182000
O        7.59708000      -4.66288000       7.54154000
H        7.22476000      -3.83050000       7.86115000
H        8.87857000      -3.23271000       7.07032000
O        9.21790000      -2.34679000       7.32151000
H        9.44007000      -2.47977000       8.25833000
