9
Properties=species:S:1:pos:R:3 frame=T 41=T |=T Written=T by=T MDAnalysis=T XYZWriter=T (release=T 2.4.3)=T pbc="F F F"
H       -8.96347000     -17.88910000      -7.94692000
O       -8.21721000     -18.27573000      -7.47763000
H       -8.63282000     -18.80347000      -6.79292000
H       -6.85335000     -18.10104000      -9.55818000
O       -7.40682000     -18.32439000     -10.33943000
H       -7.92206000     -17.50768000     -10.48330000
H       -5.76179000     -16.21083000      -7.78558000
O       -5.96487000     -17.12230000      -8.01485000
H       -6.77375000     -17.29765000      -7.50317000
