9
Properties=species:S:1:pos:R:3 frame=T 29=T |=T Written=T by=T MDAnalysis=T XYZWriter=T (release=T 2.4.3)=T pbc="F F F"
H        3.98219000      -9.07308000       3.18549000
O        4.80199000      -9.50943000       3.47609000
H        5.42844000      -8.76133000       3.55167000
H        3.30856000      -7.36002000       3.17938000
O        3.03193000      -7.86290000       2.40339000
H        2.16096000      -8.25803000       2.59507000
H        6.23415000      -8.37134000       1.18049000
O        5.57918000      -7.67607000       1.22508000
H        4.75074000      -8.07351000       1.50000000
