9
Properties=species:S:1:pos:R:3 frame=T 40=T |=T Written=T by=T MDAnalysis=T XYZWriter=T (release=T 2.4.3)=T pbc="F F F"
H       18.48287000       8.83969000      -6.57961000
O       19.35549000       8.97034000      -6.18823000
H       19.26188000       8.69559000      -5.28092000
H       16.57241000       8.76765000      -5.97711000
O       16.75518000       8.55620000      -6.89733000
H       16.22082000       9.25462000      -7.37665000
H       16.96420000       7.91068000      -3.62205000
O       17.10359000       8.68074000      -4.19867000
H       16.79835000       9.40657000      -3.64696000
