9
Properties=species:S:1:pos:R:3 frame=T 26=T |=T Written=T by=T MDAnalysis=T XYZWriter=T (release=T 2.4.3)=T pbc="F F F"
H      -18.38934000      -7.41852000      -0.39851000
O      -17.76558000      -7.14201000      -1.08893000
H      -17.86854000      -7.84918000      -1.72181000
H      -18.67233000      -5.46847000      -2.08328000
O      -18.30069000      -4.56266000      -2.04309000
H      -17.39981000      -4.74640000      -1.73999000
H      -15.48317000      -8.03041000      -2.52265000
O      -15.37742000      -7.07298000      -2.70118000
H      -16.12961000      -6.90106000      -3.29827000
