9
Properties=species:S:1:pos:R:3 frame=T 12=T |=T Written=T by=T MDAnalysis=T XYZWriter=T (release=T 2.4.3)=T pbc="F F F"
H      -14.98545000      17.10262000     -17.11290000
O      -14.68424000      17.05562000     -18.01918000
H      -14.31152000      16.17399000     -18.05245000
H       -9.14333000      17.42284000     -15.81515000
O       -9.13597000      16.45677000     -15.77862000
H       -9.37958000      16.22180000     -16.68155000
H      -12.65994000      16.36729000     -16.51566000
O      -11.99209000      17.05119000     -16.41870000
H      -11.86578000      17.44050000     -17.30661000
