9
Properties=species:S:1:pos:R:3 frame=T 27=T |=T Written=T by=T MDAnalysis=T XYZWriter=T (release=T 2.4.3)=T pbc="F F F"
H       -8.38066000       2.19363000     -15.67015000
O       -7.78862000       2.03180000     -16.39425000
H       -7.98411000       1.09170000     -16.56593000
H       -8.29432000       2.02693000     -18.08665000
O       -8.51903000       1.93020000     -19.03261000
H       -8.30077000       1.01031000     -19.23550000
H      -10.07724000       2.04471000     -13.92707000
O       -9.38928000       1.37713000     -13.98536000
H       -9.90697000       0.56910000     -13.90087000
