9
Properties=species:S:1:pos:R:3 frame=T 66=T |=T Written=T by=T MDAnalysis=T XYZWriter=T (release=T 2.4.3)=T pbc="F F F"
H       18.26195000      16.32829000      -5.67714000
O       18.42220000      15.97873000      -6.55741000
H       17.82181000      16.46927000      -7.11106000
H       15.72923000      11.90549000      -7.39461000
O       15.82017000      11.56420000      -6.50425000
H       16.10324000      12.35985000      -6.03695000
H       18.84042000      13.94101000      -7.34734000
O       18.52502000      13.03461000      -7.15299000
H       18.63976000      12.61360000      -8.02351000
