9
Properties=species:S:1:pos:R:3 frame=T 78=T |=T Written=T by=T MDAnalysis=T XYZWriter=T (release=T 2.4.3)=T pbc="F F F"
H      -12.11136000       5.74165000      13.22286000
O      -12.39366000       4.90333000      13.63688000
H      -11.71904000       4.25716000      13.35414000
H       -9.15679000       3.05382000      13.89464000
O       -9.37038000       3.78640000      13.28818000
H       -8.97769000       3.51975000      12.46192000
H       -7.58496000       5.74746000      14.98163000
O       -8.43647000       5.99241000      14.61046000
H       -8.50480000       5.35309000      13.90415000
