9
Properties=species:S:1:pos:R:3 frame=T 48=T |=T Written=T by=T MDAnalysis=T XYZWriter=T (release=T 2.4.3)=T pbc="F F F"
H       -7.39581000      -4.80594000      -4.75048000
O       -6.56102000      -5.12777000      -4.47772000
H       -6.78580000      -5.96638000      -4.02323000
H       -6.12297000      -7.94044000      -4.43873000
O       -6.54045000      -7.64132000      -3.62729000
H       -5.80906000      -7.37299000      -3.05994000
H       -4.38487000      -5.52762000      -3.02500000
O       -4.49930000      -6.34589000      -2.51670000
H       -4.51698000      -6.02655000      -1.59409000
