9
Properties=species:S:1:pos:R:3 frame=T 60=T |=T Written=T by=T MDAnalysis=T XYZWriter=T (release=T 2.4.3)=T pbc="F F F"
H        0.43492000      -5.13468000     -15.51581000
O        1.36515000      -4.98180000     -15.63397000
H        1.73476000      -5.09164000     -14.73932000
H       -0.98121000      -7.09573000     -14.91417000
O       -0.88259000      -6.18959000     -15.20879000
H       -1.40386000      -6.13074000     -16.02865000
H       -1.09037000      -3.97790000     -14.40404000
O       -0.69820000      -3.31113000     -15.01422000
H       -1.29880000      -2.54789000     -14.95362000
