9
Properties=species:S:1:pos:R:3 frame=T 74=T |=T Written=T by=T MDAnalysis=T XYZWriter=T (release=T 2.4.3)=T pbc="F F F"
H      -18.67559000      14.93821000     -14.07232000
O      -18.26451000      14.51168000     -13.31285000
H      -17.78657000      15.16753000     -12.81784000
H      -17.83773000      18.96658000     -12.76264000
O      -17.26683000      19.15055000     -13.51339000
H      -17.40701000      18.34943000     -14.03533000
H      -16.48219000      16.50204000     -11.34885000
O      -16.68201000      16.51118000     -12.30590000
H      -15.80337000      16.49392000     -12.72994000
