9
Properties=species:S:1:pos:R:3 frame=T 63=T |=T Written=T by=T MDAnalysis=T XYZWriter=T (release=T 2.4.3)=T pbc="F F F"
H        2.94973000      15.03236000       5.91182000
O        2.18059000      15.49102000       5.61090000
H        2.54464000      16.08157000       4.91147000
H       -0.36543000      17.19795000       5.82392000
O       -0.64638000      16.55999000       6.47783000
H        0.07494000      15.94251000       6.50271000
H       -1.95370000      15.40849000       5.57207000
O       -2.53932000      14.90740000       5.02016000
H       -3.42108000      15.32594000       5.12947000
