9
Properties=species:S:1:pos:R:3 frame=T 74=T |=T Written=T by=T MDAnalysis=T XYZWriter=T (release=T 2.4.3)=T pbc="F F F"
H      -10.83685000      14.40062000      16.07959000
O      -11.46998000      14.14784000      16.76910000
H      -11.47294000      14.95343000      17.30315000
H       -9.79144000      13.80312000      14.53210000
O       -9.97279000      14.68774000      14.15814000
H      -10.57808000      14.52881000      13.40277000
H       -8.67780000      12.94042000      16.26929000
O       -9.11846000      12.44961000      15.58421000
H       -9.88187000      12.06146000      16.02414000
