9
Properties=species:S:1:pos:R:3 frame=T 55=T |=T Written=T by=T MDAnalysis=T XYZWriter=T (release=T 2.4.3)=T pbc="F F F"
H       14.03270000     -15.04507000      -5.31017000
O       13.10782000     -14.99267000      -5.04683000
H       12.97972000     -15.83852000      -4.69733000
H       12.87233000     -12.52454000      -6.94241000
O       13.08682000     -11.80555000      -7.55519000
H       13.94240000     -11.48889000      -7.19718000
H       10.90085000     -13.06227000      -4.09772000
O       11.40615000     -12.96681000      -4.93795000
H       12.26304000     -13.41095000      -4.74015000
