9
Properties=species:S:1:pos:R:3 frame=T 82=T |=T Written=T by=T MDAnalysis=T XYZWriter=T (release=T 2.4.3)=T pbc="F F F"
H       12.85148000       6.85612000     -12.63503000
O       13.26072000       7.12662000     -11.78774000
H       14.17442000       6.87595000     -12.00087000
H       15.80000000       9.25458000     -13.78677000
O       15.37472000       8.42078000     -13.49060000
H       14.48412000       8.66059000     -13.30178000
H       12.50000000      10.26901000     -14.68383000
O       13.13390000      10.33596000     -13.96438000
H       12.80963000      11.03399000     -13.41778000
