9
Properties=species:S:1:pos:R:3 frame=T 42=T |=T Written=T by=T MDAnalysis=T XYZWriter=T (release=T 2.4.3)=T pbc="F F F"
H      -11.38319000       5.54839000     -12.69981000
O      -10.52351000       5.61727000     -13.14869000
H      -10.51202000       4.91185000     -13.83937000
H      -12.08778000       4.36704000     -11.01173000
O      -11.98145000       5.00497000     -10.30044000
H      -11.07066000       5.31897000     -10.42203000
H       -9.47106000       5.63764000     -11.72782000
O       -9.02776000       5.58383000     -10.86065000
H       -9.28351000       4.70694000     -10.59980000
