9
Properties=species:S:1:pos:R:3 frame=T 27=T |=T Written=T by=T MDAnalysis=T XYZWriter=T (release=T 2.4.3)=T pbc="F F F"
H        7.05128000       6.35714000      -1.79999000
O        6.61828000       6.36392000      -0.93569000
H        7.14972000       5.80195000      -0.38359000
H        5.84124000       4.83734000      -1.61148000
O        5.09174000       4.23831000      -1.82862000
H        5.29479000       3.47267000      -1.24581000
H        4.70371000       5.22258000       1.49540000
O        4.47167000       6.14688000       1.31694000
H        4.90151000       6.30027000       0.47687000
