9
Properties=species:S:1:pos:R:3 frame=T 17=T |=T Written=T by=T MDAnalysis=T XYZWriter=T (release=T 2.4.3)=T pbc="F F F"
H        9.34154000       8.76614000     -13.68052000
O        9.81516000       9.32596000     -13.07067000
H        9.14743000       9.98654000     -12.90331000
H        9.72238000       8.03151000     -11.94381000
O        9.52410000       7.52974000     -11.15425000
H       10.31863000       7.04865000     -10.94253000
H        9.21087000       6.20388000     -12.41860000
O        9.54935000       5.43085000     -12.88680000
H       10.22159000       5.02749000     -12.31257000
