9
Properties=species:S:1:pos:R:3 frame=T 38=T |=T Written=T by=T MDAnalysis=T XYZWriter=T (release=T 2.4.3)=T pbc="F F F"
H        2.56234000      17.43256000      -0.68518000
O        3.48756000      17.13509000      -0.74415000
H        3.43610000      16.18861000      -0.58121000
H        1.80519000      18.82077000      -2.88864000
O        1.26819000      18.47730000      -2.18170000
H        0.54639000      18.00521000      -2.63576000
H        3.06458000      16.74067000      -2.93537000
O        3.41883000      17.19780000      -3.71232000
H        3.87562000      16.48368000      -4.18777000
