9
Properties=species:S:1:pos:R:3 frame=T 22=T |=T Written=T by=T MDAnalysis=T XYZWriter=T (release=T 2.4.3)=T pbc="F F F"
H       -6.25095000       9.28690000     -11.96026000
O       -5.30005000       9.50157000     -11.95843000
H       -5.31847000      10.45798000     -12.15866000
H       -6.73293000      14.24333000     -11.31911000
O       -6.80208000      13.33892000     -10.96555000
H       -5.94802000      13.14569000     -10.58207000
H       -5.68302000      12.47906000     -12.22579000
O       -4.80830000      12.14291000     -12.34332000
H       -4.37071000      12.23611000     -11.48309000
