9
Properties=species:S:1:pos:R:3 frame=T 61=T |=T Written=T by=T MDAnalysis=T XYZWriter=T (release=T 2.4.3)=T pbc="F F F"
H        7.86183000       8.17999000      18.12465000
O        7.97736000       9.11719000      18.08522000
H        7.18484000       9.34497000      17.58570000
H       10.62987000      10.45735000      18.66333000
O        9.91200000      10.52421000      19.28269000
H        9.22923000      10.39279000      18.64622000
H        9.20915000       9.37018000      16.64350000
O        9.74095000       9.04608000      15.88071000
H        9.71159000       9.86533000      15.35201000
