9
Properties=species:S:1:pos:R:3 frame=T 74=T |=T Written=T by=T MDAnalysis=T XYZWriter=T (release=T 2.4.3)=T pbc="F F F"
H       10.29233000      -0.46452000     -12.98951000
O       10.27652000      -0.75449000     -13.91319000
H        9.46177000      -0.37628000     -14.27032000
H        7.38450000       0.21634000     -14.72074000
O        8.14482000       0.79475000     -14.98785000
H        8.67462000       0.19365000     -15.52567000
H        8.84715000       1.82851000     -12.95396000
O        8.93797000       1.90937000     -12.00049000
H        8.10828000       1.51441000     -11.62357000
