9
Properties=species:S:1:pos:R:3 frame=T 37=T |=T Written=T by=T MDAnalysis=T XYZWriter=T (release=T 2.4.3)=T pbc="F F F"
H        7.43402000      -4.38416000     -16.70532000
O        8.25391000      -4.37334000     -16.19602000
H        8.16397000      -5.16469000     -15.66379000
H        4.51592000      -6.54168000     -17.50949000
O        4.93368000      -7.41155000     -17.45600000
H        5.60952000      -7.30938000     -16.78547000
H        6.33763000      -7.05542000     -14.61276000
O        6.82825000      -7.09885000     -15.46414000
H        7.57550000      -7.67808000     -15.23235000
