9
Properties=species:S:1:pos:R:3 frame=T 22=T |=T Written=T by=T MDAnalysis=T XYZWriter=T (release=T 2.4.3)=T pbc="F F F"
H        6.79546000       7.91408000     -13.12789000
O        6.95124000       7.08074000     -12.67811000
H        7.90663000       7.14730000     -12.56321000
H       10.14434000       7.08160000     -11.91383000
O        9.48970000       6.37569000     -11.96849000
H       10.03310000       5.60222000     -12.19757000
H        9.17747000       6.54882000     -14.66095000
O        9.88531000       6.20539000     -15.19991000
H       10.59667000       6.85690000     -15.04732000
