9
Properties=species:S:1:pos:R:3 frame=T 3=T |=T Written=T by=T MDAnalysis=T XYZWriter=T (release=T 2.4.3)=T pbc="F F F"
H       -0.41058000     -16.90308000     -11.98102000
O       -0.46483000     -17.27084000     -11.09701000
H        0.36876000     -16.99635000     -10.69855000
H       -0.81568000     -15.90890000     -14.37385000
O       -1.11663000     -16.34436000     -13.57717000
H       -1.44290000     -17.21064000     -13.84555000
H       -3.03891000     -16.35766000     -10.88006000
O       -3.23965000     -16.15464000     -11.79795000
H       -2.39164000     -16.00334000     -12.23718000
