9
Properties=species:S:1:pos:R:3 frame=T 46=T |=T Written=T by=T MDAnalysis=T XYZWriter=T (release=T 2.4.3)=T pbc="F F F"
H       14.75943000     -13.08372000       0.75080000
O       14.64361000     -12.27126000       1.21807000
H       15.54673000     -12.02901000       1.47224000
H       12.59484000     -10.26908000      -1.16794000
O       12.93085000     -10.24042000      -0.26623000
H       13.44285000     -11.05299000      -0.09016000
H       13.16858000     -12.99243000       2.77686000
O       12.49539000     -12.46919000       3.20807000
H       12.39193000     -11.67358000       2.63842000
