9
Properties=species:S:1:pos:R:3 frame=T 21=T |=T Written=T by=T MDAnalysis=T XYZWriter=T (release=T 2.4.3)=T pbc="F F F"
H      -11.56717000      17.35069000       0.20191000
O      -11.76535000      17.70710000       1.07693000
H      -12.37016000      17.01809000       1.37737000
H      -14.68808000      17.22844000       1.93070000
O      -14.24492000      16.52643000       1.40290000
H      -14.79500000      16.42380000       0.59204000
H      -10.42071000      17.36974000       2.28059000
O       -9.46576000      17.34618000       2.40110000
H       -9.26774000      18.22027000       2.78773000
