9
Properties=species:S:1:pos:R:3 frame=T 80=T |=T Written=T by=T MDAnalysis=T XYZWriter=T (release=T 2.4.3)=T pbc="F F F"
H       11.36514000      10.27889000      13.99936000
O       11.22689000       9.55715000      13.33422000
H       10.28230000       9.64094000      13.14490000
H        9.66448000       7.60295000      16.64320000
O        9.07407000       7.59172000      15.90612000
H        9.02094000       8.55739000      15.77216000
H       12.30941000       8.06351000      16.73723000
O       11.80589000       8.86497000      16.85859000
H       11.29076000       8.91791000      16.01920000
