9
Properties=species:S:1:pos:R:3 frame=T 3=T |=T Written=T by=T MDAnalysis=T XYZWriter=T (release=T 2.4.3)=T pbc="F F F"
H       13.18065000       5.23827000       1.64692000
O       12.90240000       4.51071000       2.20077000
H       13.69853000       4.39586000       2.76823000
H       11.07390000       4.85268000       1.85219000
O       10.34791000       5.48714000       1.93703000
H       10.69439000       6.26692000       1.50201000
H       10.40740000       2.34012000       2.22771000
O       10.93663000       2.68014000       1.52344000
H       11.68612000       3.03651000       1.94076000
