9
Properties=species:S:1:pos:R:3 frame=T 79=T |=T Written=T by=T MDAnalysis=T XYZWriter=T (release=T 2.4.3)=T pbc="F F F"
H        3.76865000      -6.87540000      -3.66213000
O        4.15243000      -7.76167000      -3.67741000
H        4.73781000      -7.68790000      -4.41022000
H        6.25396000      -9.32936000      -6.34387000
O        6.18719000      -9.14790000      -5.40636000
H        5.90773000     -10.04749000      -5.14301000
H        5.28431000      -9.87384000      -1.48926000
O        5.82195000      -9.16790000      -1.91109000
H        5.14090000      -8.63945000      -2.35063000
