9
Properties=species:S:1:pos:R:3 frame=T 7=T |=T Written=T by=T MDAnalysis=T XYZWriter=T (release=T 2.4.3)=T pbc="F F F"
H       14.79674000      12.74524000       2.50202000
O       14.78190000      13.67892000       2.20788000
H       15.67374000      13.94220000       2.41884000
H       13.77040000      13.55254000       4.88146000
O       12.97881000      14.04082000       5.08875000
H       12.41404000      14.12499000       4.29491000
H       14.76154000      14.40915000       0.50246000
O       14.90124000      14.79761000      -0.34953000
H       14.59862000      14.07235000      -0.91734000
