9
Properties=species:S:1:pos:R:3 frame=T 17=T |=T Written=T by=T MDAnalysis=T XYZWriter=T (release=T 2.4.3)=T pbc="F F F"
H      -15.19972000       5.62481000      -8.32507000
O      -15.64083000       6.26304000      -7.70117000
H      -15.60450000       7.10990000      -8.16538000
H      -15.43065000       6.66664000     -11.40281000
O      -16.10902000       6.93384000     -12.04628000
H      -16.82134000       7.18782000     -11.44904000
H      -14.51311000       4.53890000     -10.26739000
O      -14.41686000       5.48230000     -10.50151000
H      -13.60258000       5.50117000     -11.01186000
