9
Properties=species:S:1:pos:R:3 frame=T 84=T |=T Written=T by=T MDAnalysis=T XYZWriter=T (release=T 2.4.3)=T pbc="F F F"
H        0.05148000      10.56048000       6.31179000
O       -0.51638000      11.20446000       5.87763000
H        0.10886000      11.85194000       5.52705000
H        3.23672000      11.35506000       5.15354000
O        3.20917000      10.43079000       4.91919000
H        2.82434000       9.95784000       5.66750000
H        1.60961000       9.93371000       7.71317000
O        1.41332000       9.39249000       6.92245000
H        1.03477000       8.58119000       7.30199000
