9
Properties=species:S:1:pos:R:3 frame=T 50=T |=T Written=T by=T MDAnalysis=T XYZWriter=T (release=T 2.4.3)=T pbc="F F F"
H        8.09497000      -5.62635000      -5.90594000
O        8.69423000      -5.13119000      -6.46777000
H        8.11348000      -4.88180000      -7.20660000
H       11.88262000      -5.27081000      -5.55147000
O       11.43880000      -4.65657000      -4.99194000
H       10.61407000      -4.49051000      -5.48922000
H       10.35034000      -1.76039000      -6.11903000
O        9.79362000      -2.51084000      -5.99158000
H        9.62165000      -2.86217000      -6.85382000
