9
Properties=species:S:1:pos:R:3 frame=T 19=T |=T Written=T by=T MDAnalysis=T XYZWriter=T (release=T 2.4.3)=T pbc="F F F"
H        2.39921000      16.10056000     -17.25765000
O        3.08365000      16.59982000     -17.65027000
H        3.77962000      16.37248000     -17.03346000
H        2.05758000      14.08972000     -17.46200000
O        2.68378000      13.46820000     -17.77015000
H        2.87186000      12.87253000     -17.00999000
H        4.63725000      13.91056000     -17.75761000
O        5.40910000      14.44060000     -17.59600000
H        5.88644000      14.42529000     -18.43938000
