9
Properties=species:S:1:pos:R:3 frame=T 17=T |=T Written=T by=T MDAnalysis=T XYZWriter=T (release=T 2.4.3)=T pbc="F F F"
H        1.81947000     -11.86332000       6.19026000
O        2.66907000     -11.79458000       6.62426000
H        3.05723000     -10.96448000       6.26428000
H        0.62729000     -11.45372000       9.30596000
O        1.52883000     -11.74008000       9.17465000
H        1.63219000     -11.47676000       8.23974000
H        4.34033000     -13.24870000       7.10137000
O        4.22930000     -14.01899000       7.68727000
H        4.31535000     -14.77256000       7.11441000
