9
Properties=species:S:1:pos:R:3 frame=T 45=T |=T Written=T by=T MDAnalysis=T XYZWriter=T (release=T 2.4.3)=T pbc="F F F"
H       -8.73508000       1.37635000       7.19827000
O       -8.94385000       0.98821000       8.08740000
H       -8.08263000       1.20042000       8.47135000
H      -10.58302000       1.81719000       8.28183000
O      -11.39927000       2.32469000       8.18102000
H      -11.40184000       2.57642000       7.23777000
H       -9.47453000       2.06341000       5.61592000
O       -8.54457000       2.27586000       5.80095000
H       -8.07000000       1.69165000       5.19373000
