9
Properties=species:S:1:pos:R:3 frame=T 73=T |=T Written=T by=T MDAnalysis=T XYZWriter=T (release=T 2.4.3)=T pbc="F F F"
H       -4.87686000      17.80490000     -16.42003000
O       -4.55110000      18.65571000     -16.05335000
H       -3.74485000      18.42052000     -15.59970000
H       -3.10470000      16.37941000     -17.81490000
O       -2.53302000      16.61137000     -18.59516000
H       -1.65886000      16.76739000     -18.17049000
H       -3.61805000      15.21863000     -16.38876000
O       -4.46868000      15.62125000     -16.66308000
H       -4.90610000      14.90531000     -17.11822000
