9
Properties=species:S:1:pos:R:3 frame=T 80=T |=T Written=T by=T MDAnalysis=T XYZWriter=T (release=T 2.4.3)=T pbc="F F F"
H       14.94090000      14.99842000       7.26455000
O       15.70433000      15.43767000       7.64504000
H       15.85918000      16.18370000       7.04795000
H       17.38443000      15.81376000      10.23887000
O       16.58619000      16.32210000       9.93292000
H       16.41193000      15.98026000       9.02637000
H       18.04341000      13.33903000       7.24526000
O       17.90787000      14.06906000       7.86944000
H       17.04551000      14.43179000       7.64651000
