9
Properties=species:S:1:pos:R:3 frame=T 37=T |=T Written=T by=T MDAnalysis=T XYZWriter=T (release=T 2.4.3)=T pbc="F F F"
H      -17.19606000      -9.42994000       6.85056000
O      -16.60548000      -9.71829000       7.53173000
H      -16.48881000      -8.96663000       8.09965000
H      -15.08351000      -6.94917000       8.41692000
O      -14.24234000      -7.27962000       8.79732000
H      -14.45018000      -7.49268000       9.75401000
H      -15.46902000     -10.29620000       6.33793000
O      -15.37697000     -10.65209000       5.45937000
H      -15.82885000      -9.97247000       4.93228000
