9
Properties=species:S:1:pos:R:3 frame=T 54=T |=T Written=T by=T MDAnalysis=T XYZWriter=T (release=T 2.4.3)=T pbc="F F F"
H        3.41755000     -17.83827000       2.34166000
O        3.36844000     -17.16155000       3.04021000
H        2.58585000     -16.65545000       2.78986000
H        1.77722000     -17.39354000      -0.57696000
O        1.51940000     -17.93599000       0.16344000
H        1.06052000     -17.33882000       0.79335000
H       -0.09556000     -15.80985000       2.39501000
O        0.44106000     -16.61655000       2.27265000
H        0.26835000     -17.06944000       3.09436000
