9
Properties=species:S:1:pos:R:3 frame=T 26=T |=T Written=T by=T MDAnalysis=T XYZWriter=T (release=T 2.4.3)=T pbc="F F F"
H       10.65366000      17.52689000      -0.54970000
O       10.69846000      16.89774000      -1.26476000
H       11.27425000      16.18578000      -0.91824000
H        7.04617000      16.72606000      -2.79841000
O        6.63944000      17.47108000      -2.30141000
H        6.28319000      18.09276000      -2.98206000
H        9.50663000      17.89433000      -2.50457000
O        9.13291000      18.16576000      -3.35941000
H        8.18061000      18.16388000      -3.25426000
