9
Properties=species:S:1:pos:R:3 frame=T 60=T |=T Written=T by=T MDAnalysis=T XYZWriter=T (release=T 2.4.3)=T pbc="F F F"
H        3.19595000       2.89980000       7.09286000
O        2.28976000       2.53891000       7.03341000
H        2.29243000       2.09656000       6.14996000
H        2.32853000       0.17822000       6.87663000
O        3.06305000      -0.35611000       7.24393000
H        2.89074000      -1.26691000       6.97647000
H        1.50086000       0.68991000       3.93458000
O        2.12939000       0.60836000       4.66566000
H        2.99477000       0.53884000       4.23981000
