9
Properties=species:S:1:pos:R:3 frame=T 47=T |=T Written=T by=T MDAnalysis=T XYZWriter=T (release=T 2.4.3)=T pbc="F F F"
H       10.75749000      -2.81007000      -1.16173000
O       10.53848000      -2.54443000      -0.26543000
H       10.83352000      -1.61691000      -0.20298000
H       11.50364000      -4.57843000      -2.52277000
O       10.71112000      -4.06132000      -2.45662000
H       10.86889000      -3.36513000      -3.13005000
H        8.79438000      -3.18150000      -1.81069000
O        8.38428000      -2.47912000      -2.34999000
H        7.73924000      -2.95434000      -2.93271000
