9
Properties=species:S:1:pos:R:3 frame=T 36=T |=T Written=T by=T MDAnalysis=T XYZWriter=T (release=T 2.4.3)=T pbc="F F F"
H        2.72611000     -17.14952000       5.93819000
O        2.76800000     -16.86840000       5.03386000
H        3.71312000     -16.84863000       4.87248000
H        3.56670000     -16.80574000       8.02327000
O        4.12608000     -16.05353000       7.73785000
H        3.52852000     -15.29671000       7.70422000
H        5.89185000     -15.17000000      10.16477000
O        6.26585000     -15.42138000       9.31039000
H        5.45981000     -15.60143000       8.79281000
