9
Properties=species:S:1:pos:R:3 frame=T 18=T |=T Written=T by=T MDAnalysis=T XYZWriter=T (release=T 2.4.3)=T pbc="F F F"
H       -5.81042000     -12.51686000      -0.42523000
O       -5.53627000     -11.59625000      -0.25796000
H       -5.51415000     -11.23508000      -1.16759000
H       -3.56463000     -11.81587000       2.26969000
O       -3.59190000     -11.13228000       1.57264000
H       -4.28037000     -11.39154000       0.96616000
H       -8.54594000     -11.58725000      -0.92779000
O       -8.14406000     -11.11566000      -0.18246000
H       -7.20036000     -11.27687000      -0.29732000
