9
Properties=species:S:1:pos:R:3 frame=T 21=T |=T Written=T by=T MDAnalysis=T XYZWriter=T (release=T 2.4.3)=T pbc="F F F"
H        7.92684000     -17.60584000       6.53013000
O        7.25515000     -16.93427000       6.75634000
H        7.17186000     -16.42604000       5.93431000
H        8.05981000     -14.38648000       9.42252000
O        8.40443000     -14.59424000      10.31571000
H        9.23915000     -14.13394000      10.36154000
H        6.13693000     -14.77004000       9.04301000
O        6.54857000     -14.62013000       8.17433000
H        6.61975000     -15.52316000       7.80034000
