9
Properties=species:S:1:pos:R:3 frame=T 69=T |=T Written=T by=T MDAnalysis=T XYZWriter=T (release=T 2.4.3)=T pbc="F F F"
H       -9.83094000      -2.97458000       7.10390000
O      -10.74819000      -3.19285000       6.86409000
H      -10.62126000      -3.93427000       6.27033000
H       -7.94311000      -2.47368000       8.09845000
O       -8.48803000      -1.78827000       8.49671000
H       -7.87367000      -1.11005000       8.76975000
H      -11.74192000      -1.80555000       7.22463000
O      -12.07093000      -0.93504000       7.44299000
H      -12.03592000      -0.97731000       8.41614000
