9
Properties=species:S:1:pos:R:3 frame=T 56=T |=T Written=T by=T MDAnalysis=T XYZWriter=T (release=T 2.4.3)=T pbc="F F F"
H       -1.08400000     -16.27034000      12.00752000
O       -1.54362000     -15.62720000      12.55278000
H       -1.98085000     -15.07644000      11.90532000
H       -0.06791000     -18.45571000      12.31396000
O       -0.63811000     -18.32228000      11.53946000
H       -1.09562000     -19.15060000      11.30452000
H        2.56911000     -17.97672000      13.87539000
O        2.01699000     -17.57869000      13.17947000
H        2.06098000     -16.65674000      13.42445000
