9
Properties=species:S:1:pos:R:3 frame=T 85=T |=T Written=T by=T MDAnalysis=T XYZWriter=T (release=T 2.4.3)=T pbc="F F F"
H        3.14450000     -11.86698000     -16.58674000
O        2.76714000     -12.30561000     -15.78930000
H        2.04822000     -11.67802000     -15.59593000
H        2.52397000      -9.46683000     -17.21058000
O        1.96899000      -9.06051000     -16.49001000
H        2.63157000      -8.64004000     -15.97818000
H        4.76155000     -10.63075000     -18.32325000
O        3.87225000     -10.95013000     -18.12309000
H        3.88654000     -11.85170000     -18.44406000
