9
Properties=species:S:1:pos:R:3 frame=T 34=T |=T Written=T by=T MDAnalysis=T XYZWriter=T (release=T 2.4.3)=T pbc="F F F"
H      -17.68274000     -13.26910000       3.39990000
O      -18.31960000     -13.85209000       3.82362000
H      -17.91943000     -14.00884000       4.67636000
H      -16.97549000      -9.91000000       4.09667000
O      -16.24794000      -9.64528000       3.51782000
H      -15.55749000      -9.47673000       4.16892000
H      -18.89044000     -11.26308000       4.92705000
O      -18.09822000     -10.79947000       5.21857000
H      -17.85691000     -11.26060000       6.02905000
