9
Properties=species:S:1:pos:R:3 frame=T 44=T |=T Written=T by=T MDAnalysis=T XYZWriter=T (release=T 2.4.3)=T pbc="F F F"
H      -18.89765000      -7.40577000      12.39230000
O      -18.69152000      -7.52178000      13.33918000
H      -18.59054000      -6.63534000      13.67087000
H      -19.20581000      -4.40335000      14.74982000
O      -18.93297000      -4.35955000      13.82295000
H      -17.98327000      -4.31061000      13.86342000
H      -17.03272000      -9.12417000      13.12790000
O      -16.84862000      -9.49657000      12.27881000
H      -16.88344000      -8.78366000      11.62134000
