9
Properties=species:S:1:pos:R:3 frame=T 50=T |=T Written=T by=T MDAnalysis=T XYZWriter=T (release=T 2.4.3)=T pbc="F F F"
H      -11.68514000       2.57519000      -4.54189000
O      -11.74799000       2.18641000      -5.41892000
H      -11.50198000       2.91857000      -6.01488000
H      -13.53153000       0.88036000      -8.55155000
O      -14.37842000       0.85103000      -9.00389000
H      -14.86785000       0.10533000      -8.63179000
H      -11.82219000       1.33525000      -7.12878000
O      -11.88124000       1.08615000      -8.05744000
H      -10.94320000       0.82890000      -8.19192000
