9
Properties=species:S:1:pos:R:3 frame=T 21=T |=T Written=T by=T MDAnalysis=T XYZWriter=T (release=T 2.4.3)=T pbc="F F F"
H        0.69834000      -5.71997000      16.83442000
O        0.55121000      -6.66147000      16.93752000
H        0.75678000      -7.00777000      16.06765000
H        0.19107000      -3.72133000      16.99714000
O        0.67032000      -4.09816000      17.74764000
H        1.57227000      -4.10775000      17.40616000
H       -0.58140000      -2.55575000      15.12825000
O        0.05848000      -3.26787000      15.17483000
H       -0.56194000      -4.00677000      15.34204000
