9
Properties=species:S:1:pos:R:3 frame=T 55=T |=T Written=T by=T MDAnalysis=T XYZWriter=T (release=T 2.4.3)=T pbc="F F F"
H      -11.90902000      -5.58162000      -3.44551000
O      -12.84534000      -5.67528000      -3.65366000
H      -13.15557000      -4.75680000      -3.61893000
H      -12.39912000      -5.51507000      -5.27193000
O      -11.99170000      -5.63558000      -6.15849000
H      -12.32997000      -4.89693000      -6.64473000
H      -13.40040000      -6.58108000      -6.87919000
O      -14.16251000      -6.94061000      -7.31834000
H      -14.01583000      -6.69434000      -8.24310000
