9
Properties=species:S:1:pos:R:3 frame=T 51=T |=T Written=T by=T MDAnalysis=T XYZWriter=T (release=T 2.4.3)=T pbc="F F F"
H       -1.19726000       4.46234000      15.53848000
O       -1.68373000       5.16410000      16.00412000
H       -0.96851000       5.69147000      16.36502000
H       -2.56071000       5.93506000      14.74244000
O       -3.05149000       6.15347000      13.94011000
H       -3.56582000       6.92174000      14.15381000
H       -2.99278000       5.22166000      17.42330000
O       -3.79730000       5.66267000      17.76125000
H       -4.39761000       5.37959000      17.00409000
