9
Properties=species:S:1:pos:R:3 frame=T 6=T |=T Written=T by=T MDAnalysis=T XYZWriter=T (release=T 2.4.3)=T pbc="F F F"
H       -2.05952000     -14.89149000     -17.80784000
O       -1.56179000     -15.43317000     -17.18551000
H       -0.98205000     -15.93264000     -17.78390000
H        1.12857000     -19.61612000     -15.20138000
O        0.74747000     -18.89674000     -15.76114000
H        0.61563000     -18.19986000     -15.09620000
H        1.41421000     -18.65155000     -17.35921000
O        1.67549000     -18.58920000     -18.28223000
H        2.62384000     -18.83000000     -18.35673000
