9
Properties=species:S:1:pos:R:3 frame=T 53=T |=T Written=T by=T MDAnalysis=T XYZWriter=T (release=T 2.4.3)=T pbc="F F F"
H       -0.61767000      -3.58266000      -0.25930000
O       -1.35957000      -4.10819000       0.09425000
H       -0.97604000      -4.63885000       0.81382000
H       -2.87950000      -2.54590000       2.20944000
O       -1.98931000      -2.26640000       1.96665000
H       -1.70234000      -2.91615000       1.34155000
H       -1.81718000      -4.85332000      -1.52779000
O       -2.06581000      -5.11414000      -2.43820000
H       -2.31866000      -6.01772000      -2.33563000
