9
Properties=species:S:1:pos:R:3 frame=T 84=T |=T Written=T by=T MDAnalysis=T XYZWriter=T (release=T 2.4.3)=T pbc="F F F"
H        7.67130000       5.48792000     -18.02186000
O        7.58874000       4.52414000     -18.10723000
H        7.03143000       4.29621000     -18.89075000
H        8.69760000       3.41107000     -17.03503000
O        9.47698000       2.90822000     -16.80276000
H        9.19021000       2.34754000     -16.07774000
H        6.22532000       5.92083000     -17.03335000
O        5.45441000       5.94878000     -16.41876000
H        5.19196000       6.88440000     -16.35948000
