9
Properties=species:S:1:pos:R:3 frame=T 56=T |=T Written=T by=T MDAnalysis=T XYZWriter=T (release=T 2.4.3)=T pbc="F F F"
H      -10.51132000      13.63325000       6.84290000
O      -10.71584000      14.32281000       6.18655000
H      -10.69564000      15.14794000       6.69587000
H      -13.79144000      12.42013000       4.36094000
O      -13.39471000      13.13214000       4.87323000
H      -12.47273000      12.92512000       4.98309000
H      -10.54054000      11.02647000       4.49652000
O      -10.60686000      11.73575000       5.14356000
H      -10.04198000      12.42151000       4.79812000
