9
Properties=species:S:1:pos:R:3 frame=T 54=T |=T Written=T by=T MDAnalysis=T XYZWriter=T (release=T 2.4.3)=T pbc="F F F"
H       -3.20203000      -5.31132000     -10.42252000
O       -2.58503000      -4.71097000     -10.88031000
H       -1.92671000      -4.56823000     -10.16935000
H       -1.68762000      -7.52706000      -7.32623000
O       -2.57346000      -7.50115000      -6.97435000
H       -2.32399000      -7.33425000      -6.05307000
H       -1.41962000      -5.51416000      -8.24635000
O       -1.07504000      -4.62173000      -8.35560000
H       -1.10412000      -4.27666000      -7.46085000
