9
Properties=species:S:1:pos:R:3 frame=T 50=T |=T Written=T by=T MDAnalysis=T XYZWriter=T (release=T 2.4.3)=T pbc="F F F"
H        0.42866000       1.65210000      16.94163000
O       -0.12001000       2.41229000      16.69536000
H        0.43442000       3.12217000      16.99398000
H        1.70685000      -0.36733000      18.33931000
O        1.08626000      -0.12909000      17.64147000
H        0.29690000      -0.62601000      17.88063000
H       -0.58227000      -3.78267000      16.51046000
O       -0.96252000      -2.92408000      16.38980000
H       -0.97438000      -2.61504000      17.30558000
