9
Properties=species:S:1:pos:R:3 frame=T 81=T |=T Written=T by=T MDAnalysis=T XYZWriter=T (release=T 2.4.3)=T pbc="F F F"
H       -1.34224000       4.12385000      13.63823000
O       -2.28771000       3.93692000      13.68725000
H       -2.68942000       4.44736000      12.95211000
H       -0.31888000      -0.23505000      13.58683000
O       -0.92412000       0.01777000      14.31166000
H       -1.71535000       0.33056000      13.82279000
H       -3.56451000       1.86573000      15.43778000
O       -3.44925000       1.66386000      14.50033000
H       -2.88450000       2.38949000      14.18501000
