9
Properties=species:S:1:pos:R:3 frame=T 14=T |=T Written=T by=T MDAnalysis=T XYZWriter=T (release=T 2.4.3)=T pbc="F F F"
H       10.52826000     -10.12958000      -2.64292000
O       11.42053000     -10.09708000      -3.01480000
H       11.27746000      -9.74193000      -3.88474000
H        7.94070000      -9.39583000      -1.88453000
O        8.59126000      -9.82656000      -2.48645000
H        8.10415000      -9.81167000      -3.30672000
H        9.14762000      -7.28046000      -2.84322000
O        8.68334000      -6.67397000      -2.22782000
H        8.35930000      -7.29272000      -1.59278000
