9
Properties=species:S:1:pos:R:3 frame=T 45=T |=T Written=T by=T MDAnalysis=T XYZWriter=T (release=T 2.4.3)=T pbc="F F F"
H      -18.63262000     -13.57041000     -17.21460000
O      -18.44247000     -13.29002000     -16.29278000
H      -17.96622000     -12.47653000     -16.38123000
H      -16.76557000     -14.64811000     -18.07419000
O      -15.95879000     -14.09911000     -17.91061000
H      -15.66020000     -14.41076000     -17.02568000
H      -18.78196000     -15.29213000     -18.84090000
O      -18.04663000     -15.74973000     -18.40944000
H      -17.75618000     -16.40970000     -19.07019000
