9
Properties=species:S:1:pos:R:3 frame=T 13=T |=T Written=T by=T MDAnalysis=T XYZWriter=T (release=T 2.4.3)=T pbc="F F F"
H       -1.38990000      18.19234000       6.38123000
O       -2.13414000      17.70273000       6.78471000
H       -2.43767000      17.20268000       6.02605000
H       -4.21431000      15.27256000       6.97751000
O       -4.00750000      14.55427000       6.35900000
H       -3.27439000      14.07402000       6.77874000
H       -1.90974000      15.79242000       4.64514000
O       -2.73029000      16.20660000       4.33323000
H       -3.35925000      15.71302000       4.86022000
