9
Properties=species:S:1:pos:R:3 frame=T 52=T |=T Written=T by=T MDAnalysis=T XYZWriter=T (release=T 2.4.3)=T pbc="F F F"
H       -5.67790000     -10.60919000     -17.77519000
O       -5.51922000     -11.55475000     -17.93819000
H       -4.53784000     -11.67973000     -18.02226000
H       -6.06170000     -13.60471000     -16.18028000
O       -5.90483000     -12.88214000     -15.59872000
H       -5.84613000     -12.16359000     -16.23277000
H       -5.73170000      -9.33797000     -15.99407000
O       -5.71092000      -9.86592000     -15.16929000
H       -6.61395000      -9.92406000     -14.84953000
