9
Properties=species:S:1:pos:R:3 frame=T 48=T |=T Written=T by=T MDAnalysis=T XYZWriter=T (release=T 2.4.3)=T pbc="F F F"
H       10.51643000     -17.95810000       6.63187000
O       10.37202000     -17.05767000       6.36499000
H        9.77795000     -17.05854000       5.63260000
H        9.26216000     -16.69013000       7.84130000
O        9.04856000     -17.04033000       8.70727000
H        8.48354000     -16.34236000       9.10427000
H        6.54375000     -16.12281000       6.47486000
O        7.48946000     -15.87336000       6.31966000
H        7.71312000     -16.35476000       5.54009000
