9
Properties=species:S:1:pos:R:3 frame=T 26=T |=T Written=T by=T MDAnalysis=T XYZWriter=T (release=T 2.4.3)=T pbc="F F F"
H       14.23515000       7.13679000     -18.48542000
O       14.52741000       7.12903000     -17.55887000
H       14.53773000       8.04411000     -17.30717000
H       16.86003000       4.56530000     -18.13947000
O       16.34550000       5.19463000     -18.70940000
H       15.66048000       5.55052000     -18.11565000
H       13.99553000      10.60450000     -15.41200000
O       13.86874000       9.67784000     -15.25524000
H       13.25396000       9.44672000     -15.96909000
