9
Properties=species:S:1:pos:R:3 frame=T 46=T |=T Written=T by=T MDAnalysis=T XYZWriter=T (release=T 2.4.3)=T pbc="F F F"
H      -11.14783000     -14.57566000      16.27609000
O      -10.61994000     -13.77500000      16.09506000
H      -11.34638000     -13.17128000      15.93315000
H      -10.79142000     -11.19622000      15.36560000
O      -11.63520000     -11.08830000      15.83615000
H      -12.05870000     -10.33121000      15.42329000
H      -11.31134000     -11.55980000      17.38100000
O      -11.02818000     -11.59855000      18.30183000
H      -11.74674000     -12.01862000      18.79287000
