9
Properties=species:S:1:pos:R:3 frame=T 63=T |=T Written=T by=T MDAnalysis=T XYZWriter=T (release=T 2.4.3)=T pbc="F F F"
H       -5.72252000       2.37233000       8.48709000
O       -6.13058000       1.99386000       7.68917000
H       -6.58800000       1.21534000       8.06009000
H       -3.78838000       1.05918000       7.04936000
O       -3.01754000       1.66629000       6.95728000
H       -3.29442000       2.35476000       7.57432000
H       -5.86030000       0.44140000       6.13919000
O       -5.10127000       0.21961000       5.61620000
H       -5.40715000      -0.28045000       4.85555000
