9
Properties=species:S:1:pos:R:3 frame=T 61=T |=T Written=T by=T MDAnalysis=T XYZWriter=T (release=T 2.4.3)=T pbc="F F F"
H       14.59833000     -16.99038000     -17.21742000
O       15.45195000     -16.51415000     -17.33092000
H       15.52123000     -16.50211000     -18.29184000
H       14.68942000     -14.84724000     -17.86201000
O       14.18272000     -14.03834000     -17.86751000
H       14.02252000     -13.87474000     -18.81266000
H       16.47446000     -17.03544000     -14.96004000
O       16.49002000     -17.89388000     -15.33204000
H       16.53652000     -17.74511000     -16.28477000
