9
Properties=species:S:1:pos:R:3 frame=T 50=T |=T Written=T by=T MDAnalysis=T XYZWriter=T (release=T 2.4.3)=T pbc="F F F"
H      -11.06016000       3.21698000      16.96849000
O      -10.56093000       4.03670000      17.05155000
H      -10.37101000       4.11009000      17.98481000
H      -12.79221000       2.02063000      18.41543000
O      -12.08799000       1.35010000      18.34351000
H      -11.56663000       1.49210000      19.13786000
H      -13.74923000       0.54128000      17.71315000
O      -14.66137000       0.18663000      17.73986000
H      -14.93008000       0.39628000      18.62294000
