9
Properties=species:S:1:pos:R:3 frame=T 80=T |=T Written=T by=T MDAnalysis=T XYZWriter=T (release=T 2.4.3)=T pbc="F F F"
H       15.36775000      10.74286000      -3.81282000
O       15.27407000      10.97310000      -2.86233000
H       15.90412000      11.69923000      -2.71588000
H       17.22204000      12.95917000      -2.84260000
O       16.57840000      13.06429000      -2.12456000
H       17.06731000      12.91484000      -1.30397000
H       18.25843000      10.30005000      -2.52001000
O       17.75684000       9.75099000      -1.88740000
H       16.89678000      10.20890000      -1.92521000
