9
Properties=species:S:1:pos:R:3 frame=T 35=T |=T Written=T by=T MDAnalysis=T XYZWriter=T (release=T 2.4.3)=T pbc="F F F"
H       13.57184000       3.27061000      -8.50101000
O       14.04652000       4.11399000      -8.59171000
H       14.86333000       3.85284000      -9.02874000
H       12.89393000       1.35167000      -8.33248000
O       12.30715000       2.10635000      -8.19812000
H       11.68796000       2.07216000      -8.93814000
H       14.30370000       2.70020000      -5.95193000
O       15.06107000       3.24989000      -6.11784000
H       14.87293000       3.68494000      -6.94514000
