9
Properties=species:S:1:pos:R:3 frame=T 85=T |=T Written=T by=T MDAnalysis=T XYZWriter=T (release=T 2.4.3)=T pbc="F F F"
H        1.48450000     -17.32538000       1.49700000
O        0.54415000     -17.19617000       1.41289000
H        0.37582000     -17.02754000       0.46903000
H        1.32171000     -18.45900000      -1.57576000
O        0.47542000     -18.12838000      -1.26630000
H        0.06526000     -17.72499000      -2.02840000
H       -1.20849000     -18.43327000       1.25508000
O       -2.05264000     -17.97248000       1.13601000
H       -1.82099000     -17.02840000       0.97874000
