9
Properties=species:S:1:pos:R:3 frame=T 74=T |=T Written=T by=T MDAnalysis=T XYZWriter=T (release=T 2.4.3)=T pbc="F F F"
H        4.82025000      15.13629000       2.77339000
O        4.85542000      15.03104000       1.81810000
H        5.70599000      14.58647000       1.71429000
H        7.48469000      12.72504000       0.32258000
O        6.81498000      13.34079000       0.59909000
H        6.26539000      13.48783000      -0.17470000
H        4.84658000      13.79120000      -2.28438000
O        4.68792000      13.69763000      -1.32165000
H        4.14400000      14.44588000      -1.10030000
