9
Properties=species:S:1:pos:R:3 frame=T 13=T |=T Written=T by=T MDAnalysis=T XYZWriter=T (release=T 2.4.3)=T pbc="F F F"
H       -3.10729000      17.87319000      -7.51368000
O       -3.99734000      18.26139000      -7.46788000
H       -3.88537000      19.20935000      -7.26749000
H       -5.66437000      17.31116000      -7.16821000
O       -6.50198000      17.13451000      -6.76185000
H       -6.97267000      17.95374000      -6.82835000
H       -1.33618000      18.68129000      -5.80867000
O       -1.44136000      18.12905000      -6.60898000
H       -1.24838000      17.21269000      -6.36349000
