9
Properties=species:S:1:pos:R:3 frame=T 75=T |=T Written=T by=T MDAnalysis=T XYZWriter=T (release=T 2.4.3)=T pbc="F F F"
H       -5.62311000     -16.95262000     -14.35569000
O       -4.86341000     -17.25949000     -13.85724000
H       -4.17833000     -16.62225000     -14.12527000
H       -8.33631000     -16.36443000     -13.92930000
O       -7.77629000     -17.03602000     -14.37736000
H       -7.45103000     -17.57396000     -13.64127000
H       -5.20011000     -16.14217000     -12.29365000
O       -5.46985000     -15.94186000     -11.39636000
H       -6.19828000     -15.34617000     -11.51465000
