9
Properties=species:S:1:pos:R:3 frame=T 65=T |=T Written=T by=T MDAnalysis=T XYZWriter=T (release=T 2.4.3)=T pbc="F F F"
H       11.06002000       3.21318000      17.79527000
O       11.33280000       2.93902000      16.92799000
H       10.49156000       3.05038000      16.43433000
H       12.87714000      -0.05177000      16.00155000
O       12.86354000      -0.47740000      16.87795000
H       13.68151000      -1.02441000      16.87622000
H       12.48976000       1.89869000      18.90772000
O       12.28195000       1.01690000      19.21325000
H       12.40217000       0.48077000      18.39820000
