9
Properties=species:S:1:pos:R:3 frame=T 10=T |=T Written=T by=T MDAnalysis=T XYZWriter=T (release=T 2.4.3)=T pbc="F F F"
H       -7.35076000     -11.01921000      -9.59911000
O       -8.20748000     -11.37659000      -9.93061000
H       -8.81000000     -10.64555000      -9.68252000
H      -10.57976000      -9.67348000      -9.41896000
O       -9.72942000      -9.29028000      -9.20959000
H       -9.48106000      -8.70356000      -9.94795000
H       -9.36950000      -9.18539000      -6.86260000
O       -8.87261000      -8.89798000      -6.07994000
H       -9.37667000      -8.18865000      -5.64804000
