9
Properties=species:S:1:pos:R:3 frame=T 78=T |=T Written=T by=T MDAnalysis=T XYZWriter=T (release=T 2.4.3)=T pbc="F F F"
H       -3.57230000       3.37927000      13.53911000
O       -4.32951000       3.62688000      14.09351000
H       -4.62622000       2.84722000      14.53420000
H       -3.54121000       6.37729000      15.32528000
O       -3.85242000       5.81160000      16.05441000
H       -4.16512000       5.04084000      15.58239000
H       -5.45755000       4.68483000      13.15379000
O       -5.96475000       4.97453000      12.37514000
H       -6.37902000       5.82081000      12.59506000
