9
Properties=species:S:1:pos:R:3 frame=T 8=T |=T Written=T by=T MDAnalysis=T XYZWriter=T (release=T 2.4.3)=T pbc="F F F"
H      -12.37027000      10.87598000       7.65717000
O      -12.16739000      11.80336000       7.45056000
H      -11.40983000      11.97710000       7.99970000
H      -12.44868000       8.50334000       7.07962000
O      -11.54585000       8.76257000       7.27837000
H      -11.37037000       8.07123000       7.92818000
H      -13.60899000       9.45893000       5.35142000
O      -13.91077000       9.44784000       6.23989000
H      -14.80148000       9.84939000       6.17723000
