9
Properties=species:S:1:pos:R:3 frame=T 3=T |=T Written=T by=T MDAnalysis=T XYZWriter=T (release=T 2.4.3)=T pbc="F F F"
H      -12.24223000      18.11351000      -2.69079000
O      -11.36608000      17.66819000      -2.71000000
H      -11.62815000      16.84376000      -3.17400000
H      -14.03671000      19.17168000      -4.86117000
O      -14.80282000      18.58784000      -4.76860000
H      -14.58561000      17.93444000      -5.44184000
H      -15.77327000      18.53235000      -3.42161000
O      -16.04893000      18.81198000      -2.54064000
H      -15.95813000      17.94221000      -2.10565000
