9
Properties=species:S:1:pos:R:3 frame=T 42=T |=T Written=T by=T MDAnalysis=T XYZWriter=T (release=T 2.4.3)=T pbc="F F F"
H       -8.50132000     -12.47378000      -4.80378000
O       -8.55920000     -11.89003000      -5.55528000
H       -9.45359000     -11.54501000      -5.51588000
H      -10.11402000     -14.73437000      -2.78296000
O      -10.67469000     -14.51755000      -2.03295000
H      -11.38192000     -15.17844000      -2.01568000
H       -8.17791000     -13.09795000      -2.74176000
O       -8.29863000     -13.77623000      -3.44974000
H       -7.34633000     -13.95997000      -3.58144000
