9
Properties=species:S:1:pos:R:3 frame=T 23=T |=T Written=T by=T MDAnalysis=T XYZWriter=T (release=T 2.4.3)=T pbc="F F F"
H       13.65723000      14.52269000       4.01435000
O       12.80285000      14.95324000       3.86932000
H       12.56488000      15.18615000       4.77455000
H       14.39419000      12.36142000       7.38118000
O       13.55625000      12.73530000       7.69933000
H       13.83310000      13.25190000       8.44800000
H       12.62093000      16.05279000       7.33890000
O       12.51437000      15.39156000       6.65694000
H       12.81768000      14.60146000       7.12281000
