9
Properties=species:S:1:pos:R:3 frame=T 34=T |=T Written=T by=T MDAnalysis=T XYZWriter=T (release=T 2.4.3)=T pbc="F F F"
H      -11.05947000      -7.08490000       7.38464000
O      -10.11346000      -7.25958000       7.51337000
H      -10.04048000      -8.20497000       7.32993000
H      -14.86870000      -5.60865000       4.76955000
O      -14.19265000      -4.91887000       4.77793000
H      -13.54200000      -5.23058000       5.40935000
H      -13.23133000      -5.76117000       7.99288000
O      -12.95403000      -6.23390000       7.18734000
H      -13.13193000      -7.14373000       7.46330000
