9
Properties=species:S:1:pos:R:3 frame=T 55=T |=T Written=T by=T MDAnalysis=T XYZWriter=T (release=T 2.4.3)=T pbc="F F F"
H       17.87306000     -16.23111000      18.30718000
O       16.93805000     -16.08420000      18.52800000
H       16.94725000     -15.52055000      19.32258000
H       16.45929000     -17.56513000      18.24423000
O       16.26183000     -18.50915000      18.23446000
H       16.43888000     -18.67687000      17.29978000
H       13.07635000     -16.47964000      19.22582000
O       12.89989000     -16.37393000      18.29980000
H       12.99105000     -17.28108000      17.94943000
