9
Properties=species:S:1:pos:R:3 frame=T 25=T |=T Written=T by=T MDAnalysis=T XYZWriter=T (release=T 2.4.3)=T pbc="F F F"
H        0.46453000      -7.94566000     -14.32961000
O        1.11626000      -8.62282000     -14.65965000
H        0.66749000      -9.42871000     -14.36770000
H       -2.44570000      -7.93673000     -14.95607000
O       -2.82550000      -8.50302000     -15.67638000
H       -3.51741000      -7.92399000     -15.99600000
H       -0.95122000      -7.59653000     -12.37856000
O       -1.22333000      -7.37596000     -13.28394000
H       -1.97216000      -6.78958000     -13.15496000
