9
Properties=species:S:1:pos:R:3 frame=T 82=T |=T Written=T by=T MDAnalysis=T XYZWriter=T (release=T 2.4.3)=T pbc="F F F"
H        7.91646000     -15.13732000      -9.04838000
O        7.55546000     -15.49705000      -9.86524000
H        8.10332000     -16.27973000     -10.03011000
H        7.89037000     -14.05643000      -6.99303000
O        8.53351000     -14.64580000      -7.35967000
H        8.38860000     -15.48206000      -6.86176000
H        6.77619000     -12.76083000      -5.05743000
O        6.79079000     -12.98728000      -5.98083000
H        5.94523000     -13.48557000      -6.09519000
