9
Properties=species:S:1:pos:R:3 frame=T 17=T |=T Written=T by=T MDAnalysis=T XYZWriter=T (release=T 2.4.3)=T pbc="F F F"
H       -2.46236000      -3.00490000     -10.67166000
O       -2.26631000      -2.99376000     -11.61314000
H       -1.31183000      -3.08714000     -11.55642000
H       -1.90882000      -0.85384000     -11.15872000
O       -1.54946000      -0.11749000     -10.68836000
H       -0.65175000      -0.12333000     -11.02686000
H        0.67495000      -3.74979000     -12.17345000
O        0.74915000      -3.02882000     -11.52612000
H        0.98749000      -2.29292000     -12.07298000
