9
Properties=species:S:1:pos:R:3 frame=T 49=T |=T Written=T by=T MDAnalysis=T XYZWriter=T (release=T 2.4.3)=T pbc="F F F"
H       10.84713000      -0.62545000       5.17016000
O       11.59738000      -0.09018000       5.36777000
H       11.31340000       0.57033000       6.01952000
H       12.29934000      -1.62492000       8.41153000
O       12.21283000      -0.67658000       8.50490000
H       11.78499000      -0.40249000       7.69644000
H        9.59746000       1.74667000       7.60629000
O       10.45657000       1.29832000       7.52998000
H       10.68518000       1.25559000       8.45918000
