9
Properties=species:S:1:pos:R:3 frame=T 77=T |=T Written=T by=T MDAnalysis=T XYZWriter=T (release=T 2.4.3)=T pbc="F F F"
H       13.98318000     -14.33271000       9.20949000
O       14.06766000     -13.47709000       8.82405000
H       14.44681000     -12.91448000       9.48652000
H       14.78227000     -16.67031000       5.67072000
O       14.71233000     -15.88508000       6.24187000
H       15.01795000     -15.13378000       5.71695000
H       14.05983000     -16.23504000       7.99374000
O       13.88243000     -16.39312000       8.91898000
H       12.94237000     -16.44341000       8.96696000
