9
Properties=species:S:1:pos:R:3 frame=T 34=T |=T Written=T by=T MDAnalysis=T XYZWriter=T (release=T 2.4.3)=T pbc="F F F"
H      -12.38726000       6.50959000     -14.64576000
O      -12.42868000       7.20849000     -15.32873000
H      -13.21040000       7.74248000     -15.09099000
H      -12.08193000       7.45177000     -17.00990000
O      -11.96465000       7.34885000     -17.97204000
H      -11.96270000       8.24075000     -18.35349000
H      -14.00003000       6.67819000     -17.67296000
O      -14.75204000       6.13476000     -17.35349000
H      -14.71738000       5.29544000     -17.81562000
