9
Properties=species:S:1:pos:R:3 frame=T 37=T |=T Written=T by=T MDAnalysis=T XYZWriter=T (release=T 2.4.3)=T pbc="F F F"
H       15.64623000       6.48737000       3.37499000
O       15.16601000       6.15877000       2.55386000
H       15.33461000       5.19973000       2.61752000
H       18.26333000       5.85937000       1.58255000
O       19.00710000       5.42237000       1.97723000
H       18.75294000       4.51128000       1.95341000
H       16.88072000       6.58368000      -0.08685000
O       17.11254000       6.93896000       0.79749000
H       16.49148000       6.53570000       1.38506000
