9
Properties=species:S:1:pos:R:3 frame=T 2=T |=T Written=T by=T MDAnalysis=T XYZWriter=T (release=T 2.4.3)=T pbc="F F F"
H        5.63936000       1.06238000      -4.14993000
O        6.20459000       0.33874000      -3.80618000
H        6.59280000       0.77830000      -3.04240000
H        8.46274000      -0.37346000      -3.56139000
O        8.96646000      -0.54436000      -2.77854000
H        9.87953000      -0.66720000      -3.10566000
H        7.64599000       2.14569000      -1.15563000
O        7.56807000       1.60551000      -1.94595000
H        8.33872000       1.05379000      -1.96983000
