9
Properties=species:S:1:pos:R:3 frame=T 57=T |=T Written=T by=T MDAnalysis=T XYZWriter=T (release=T 2.4.3)=T pbc="F F F"
H       -2.43793000      10.89625000     -16.71036000
O       -1.83118000      11.52388000     -17.15620000
H       -2.21740000      11.74333000     -18.01377000
H       -1.14145000      12.79805000     -16.13928000
O       -0.77016000      13.51699000     -15.60063000
H       -0.10620000      13.03006000     -15.11076000
H        0.40110000      11.36563000     -17.67088000
O        1.08858000      11.98853000     -17.95205000
H        1.52128000      11.47751000     -18.64971000
