9
Properties=species:S:1:pos:R:3 frame=T 99=T |=T Written=T by=T MDAnalysis=T XYZWriter=T (release=T 2.4.3)=T pbc="F F F"
H       14.69643000      -4.92636000     -10.65787000
O       13.87627000      -5.30021000     -11.01327000
H       13.84243000      -4.92972000     -11.87788000
H       11.93328000      -5.90289000     -14.02082000
O       11.96582000      -5.88450000     -13.04775000
H       11.71568000      -4.97204000     -12.94620000
H       13.69813000      -6.29250000     -13.49453000
O       14.23787000      -7.09840000     -13.40723000
H       13.88751000      -7.61659000     -14.18571000
