9
Properties=species:S:1:pos:R:3 frame=T 55=T |=T Written=T by=T MDAnalysis=T XYZWriter=T (release=T 2.4.3)=T pbc="F F F"
H      -18.00347000     -15.89060000      11.95050000
O      -17.84956000     -16.79550000      12.29704000
H      -17.67878000     -17.31875000      11.52688000
H      -17.16993000     -17.87469000       9.75191000
O      -17.38547000     -18.53036000      10.41298000
H      -18.34272000     -18.66812000      10.40630000
H      -16.29918000     -17.14623000      12.80825000
O      -15.49603000     -17.24586000      13.37007000
H      -15.87287000     -17.61097000      14.16868000
