9
Properties=species:S:1:pos:R:3 frame=T 51=T |=T Written=T by=T MDAnalysis=T XYZWriter=T (release=T 2.4.3)=T pbc="F F F"
H        6.43146000      -4.75353000      12.09231000
O        6.17675000      -3.99999000      11.55192000
H        6.38407000      -4.32841000      10.65495000
H        9.51115000      -3.79667000      10.75350000
O        9.44279000      -3.05270000      11.34589000
H       10.36500000      -2.92307000      11.64971000
H        8.74917000      -3.15526000      13.96045000
O        7.84227000      -3.04535000      13.63262000
H        7.86715000      -3.24532000      12.68684000
