9
Properties=species:S:1:pos:R:3 frame=T 91=T |=T Written=T by=T MDAnalysis=T XYZWriter=T (release=T 2.4.3)=T pbc="F F F"
H       -7.03127000      -8.66793000      -8.19785000
O       -6.18924000      -8.26306000      -8.44186000
H       -6.14001000      -8.37984000      -9.40998000
H       -6.06816000      -4.88192000      -9.23394000
O       -6.12555000      -5.73980000      -9.66842000
H       -6.08057000      -6.36065000      -8.93863000
H       -4.53289000      -9.49937000      -8.23326000
O       -3.74836000     -10.04651000      -8.10870000
H       -3.07491000      -9.61970000      -8.66606000
