9
Properties=species:S:1:pos:R:3 frame=T 75=T |=T Written=T by=T MDAnalysis=T XYZWriter=T (release=T 2.4.3)=T pbc="F F F"
H       -4.51305000      -5.05587000     -10.08082000
O       -5.43891000      -5.21050000      -9.90618000
H       -5.74317000      -5.55459000     -10.74374000
H       -1.74598000      -3.81712000     -13.24648000
O       -2.61792000      -4.10404000     -12.98768000
H       -2.54675000      -5.07931000     -12.85546000
H       -2.94028000      -4.52142000     -11.18746000
O       -2.86698000      -4.82840000     -10.26947000
H       -2.62028000      -5.76573000     -10.41891000
