9
Properties=species:S:1:pos:R:3 frame=T 60=T |=T Written=T by=T MDAnalysis=T XYZWriter=T (release=T 2.4.3)=T pbc="F F F"
H       -2.50355000       5.12032000      -0.94193000
O       -2.52126000       6.08314000      -1.13745000
H       -2.78268000       6.11153000      -2.03328000
H       -2.14347000       6.51889000      -3.84438000
O       -3.09594000       6.30286000      -3.82048000
H       -3.09088000       5.46251000      -4.27071000
H        0.01605000       7.04749000      -3.70137000
O       -0.51334000       6.66154000      -4.42894000
H       -0.46890000       5.70241000      -4.26652000
