9
Properties=species:S:1:pos:R:3 frame=T 28=T |=T Written=T by=T MDAnalysis=T XYZWriter=T (release=T 2.4.3)=T pbc="F F F"
H      -11.69271000      -7.60784000       0.81910000
O      -12.27435000      -7.92455000       1.51865000
H      -13.16332000      -7.69750000       1.15921000
H      -11.70165000     -10.91247000       2.24680000
O      -11.97565000     -10.90039000       1.32933000
H      -12.42254000     -10.10385000       1.15307000
H      -14.12949000      -8.42521000       3.80970000
O      -13.67691000      -7.57647000       3.70983000
H      -12.91161000      -7.80517000       3.16062000
