9
Properties=species:S:1:pos:R:3 frame=T 94=T |=T Written=T by=T MDAnalysis=T XYZWriter=T (release=T 2.4.3)=T pbc="F F F"
H       -5.59828000     -10.40582000     -11.36131000
O       -5.65076000     -10.09583000     -10.46458000
H       -5.28493000      -9.21721000     -10.58681000
H       -5.65154000     -11.06865000      -9.04141000
O       -5.62081000     -11.71171000      -8.31648000
H       -6.38582000     -12.27077000      -8.42501000
H       -6.29157000     -11.11982000     -13.40802000
O       -5.41213000     -11.49327000     -13.55137000
H       -5.13418000     -11.88279000     -12.69768000
