9
Properties=species:S:1:pos:R:3 frame=T 76=T |=T Written=T by=T MDAnalysis=T XYZWriter=T (release=T 2.4.3)=T pbc="F F F"
H        3.00904000      12.84295000     -14.15695000
O        3.81083000      12.32812000     -14.07558000
H        4.04585000      12.35795000     -13.15697000
H        2.29565000      10.26645000     -11.05966000
O        2.36855000       9.33949000     -11.31669000
H        2.61355000       9.34405000     -12.26751000
H        5.25541000       9.86140000     -13.91579000
O        4.36858000       9.54173000     -13.64585000
H        3.85296000      10.30833000     -13.81156000
