9
Properties=species:S:1:pos:R:3 frame=T 72=T |=T Written=T by=T MDAnalysis=T XYZWriter=T (release=T 2.4.3)=T pbc="F F F"
H        0.79047000     -11.39899000     -16.87190000
O        1.16812000     -12.25711000     -17.04771000
H        2.09769000     -12.21213000     -16.80130000
H        3.60471000     -13.36617000     -15.65069000
O        3.63158000     -13.26441000     -16.59588000
H        3.03459000     -13.94196000     -16.91666000
H        5.15971000     -14.21028000     -16.55303000
O        5.99903000     -14.62602000     -16.30846000
H        6.05500000     -15.37280000     -16.91085000
