9
Properties=species:S:1:pos:R:3 frame=T 23=T |=T Written=T by=T MDAnalysis=T XYZWriter=T (release=T 2.4.3)=T pbc="F F F"
H       17.17764000     -16.70029000      -5.55942000
O       17.57885000     -15.82872000      -5.74394000
H       16.88338000     -15.32911000      -6.16396000
H       18.04360000     -18.07901000      -2.27835000
O       18.26866000     -18.33540000      -3.18645000
H       18.82535000     -19.12153000      -3.07205000
H       15.46470000     -18.57806000      -5.33956000
O       16.42440000     -18.36925000      -5.27342000
H       16.64055000     -18.52107000      -4.33996000
