9
Properties=species:S:1:pos:R:3 frame=T 29=T |=T Written=T by=T MDAnalysis=T XYZWriter=T (release=T 2.4.3)=T pbc="F F F"
H       -2.70484000      12.86457000      16.75787000
O       -3.29054000      12.96278000      15.98141000
H       -3.56841000      12.05490000      15.80817000
H       -3.50926000       9.64068000      16.17159000
O       -4.11345000      10.34152000      16.35386000
H       -4.34464000      10.20929000      17.29540000
H       -4.23427000       8.53330000      18.53833000
O       -4.65218000       9.37915000      18.75778000
H       -5.59252000       9.18955000      18.78931000
