9
Properties=species:S:1:pos:R:3 frame=T 20=T |=T Written=T by=T MDAnalysis=T XYZWriter=T (release=T 2.4.3)=T pbc="F F F"
H        3.97077000       4.72152000      -4.39991000
O        3.81266000       4.06778000      -3.72011000
H        3.47005000       3.30836000      -4.20725000
H        1.66160000       4.05724000      -4.33475000
O        1.36929000       3.45402000      -5.00587000
H        1.00125000       4.02944000      -5.69981000
H       -1.44021000       2.76168000      -3.73620000
O       -0.67694000       2.25844000      -3.43972000
H        0.00955000       2.62073000      -3.97433000
