9
Properties=species:S:1:pos:R:3 frame=T 43=T |=T Written=T by=T MDAnalysis=T XYZWriter=T (release=T 2.4.3)=T pbc="F F F"
H       13.91738000       5.85719000      12.36802000
O       14.46499000       5.73011000      13.16672000
H       14.56910000       6.62089000      13.53908000
H       13.72122000       5.25351000       9.71403000
O       13.99293000       6.06875000      10.14631000
H       13.11296000       6.38315000      10.42438000
H       11.17364000       7.06220000      12.03483000
O       11.18154000       6.39125000      11.31232000
H       10.74928000       6.85502000      10.57977000
