9
Properties=species:S:1:pos:R:3 frame=T 26=T |=T Written=T by=T MDAnalysis=T XYZWriter=T (release=T 2.4.3)=T pbc="F F F"
H      -12.28366000      -9.00422000     -10.14820000
O      -12.24548000      -8.18497000     -10.66507000
H      -11.71647000      -7.60896000     -10.09314000
H      -12.05745000      -6.41591000      -8.80341000
O      -12.03182000      -5.59327000      -9.31237000
H      -12.48053000      -4.92614000      -8.73216000
H       -9.37621000      -8.26907000     -12.30754000
O       -9.53817000      -8.17243000     -11.35370000
H      -10.45610000      -8.42102000     -11.18369000
