9
Properties=species:S:1:pos:R:3 frame=T 68=T |=T Written=T by=T MDAnalysis=T XYZWriter=T (release=T 2.4.3)=T pbc="F F F"
H        5.56728000      -2.25994000     -14.42682000
O        5.66946000      -2.08031000     -13.47571000
H        6.47288000      -1.51736000     -13.44410000
H        4.78531000      -2.03643000     -16.64060000
O        4.64494000      -2.47164000     -15.79424000
H        4.53282000      -3.39093000     -16.02843000
H        4.38101000      -1.25250000     -11.20430000
O        4.07458000      -2.16741000     -11.33743000
H        4.67912000      -2.50443000     -12.01594000
