9
Properties=species:S:1:pos:R:3 frame=T 42=T |=T Written=T by=T MDAnalysis=T XYZWriter=T (release=T 2.4.3)=T pbc="F F F"
H        4.64775000      14.24806000      -3.33527000
O        4.96157000      14.85458000      -2.67992000
H        4.23965000      15.54747000      -2.67559000
H        7.61876000      15.20377000      -0.10531000
O        7.32266000      15.13975000      -1.02352000
H        6.36978000      15.28510000      -1.02181000
H        5.26147000      15.66898000       0.85251000
O        4.75742000      15.70646000       0.00482000
H        4.54580000      16.63814000      -0.05435000
