9
Properties=species:S:1:pos:R:3 frame=T 83=T |=T Written=T by=T MDAnalysis=T XYZWriter=T (release=T 2.4.3)=T pbc="F F F"
H       12.34417000      10.31470000      16.35152000
O       11.64392000      10.49152000      15.70189000
H       12.08805000      10.96025000      14.97511000
H       10.46245000       9.20472000      15.55979000
O        9.93794000       8.56239000      15.02387000
H       10.63121000       8.16065000      14.47962000
H       12.27006000      12.27489000      18.23310000
O       11.36407000      12.00818000      18.03935000
H       11.38857000      11.82535000      17.08106000
