9
Properties=species:S:1:pos:R:3 frame=T 49=T |=T Written=T by=T MDAnalysis=T XYZWriter=T (release=T 2.4.3)=T pbc="F F F"
H      -16.71778000     -10.68745000     -14.36436000
O      -16.72837000     -11.15223000     -13.50103000
H      -16.99635000     -10.47388000     -12.87336000
H      -18.70518000      -9.48545000     -12.14079000
O      -18.11461000      -9.87932000     -11.50485000
H      -17.51379000      -9.12925000     -11.32826000
H      -18.13031000     -11.94377000     -13.72715000
O      -19.05259000     -12.22448000     -13.73948000
H      -19.02913000     -12.86804000     -14.43283000
