9
Properties=species:S:1:pos:R:3 frame=T 83=T |=T Written=T by=T MDAnalysis=T XYZWriter=T (release=T 2.4.3)=T pbc="F F F"
H       -2.21023000     -14.64478000      14.28814000
O       -2.44300000     -14.10193000      13.53968000
H       -3.37882000     -13.98689000      13.60738000
H       -5.90905000     -16.53893000      14.25459000
O       -5.84413000     -15.80085000      14.87004000
H       -4.93964000     -15.91003000      15.12960000
H       -5.45041000     -14.50442000      14.07357000
O       -5.14083000     -13.67561000      13.66819000
H       -5.42903000     -12.96799000      14.26159000
