9
Properties=species:S:1:pos:R:3 frame=T 48=T |=T Written=T by=T MDAnalysis=T XYZWriter=T (release=T 2.4.3)=T pbc="F F F"
H        4.75510000      -1.60292000       3.50736000
O        4.46734000      -0.83268000       3.00526000
H        4.11839000      -0.29525000       3.70223000
H        2.75246000      -0.20487000       7.76643000
O        2.36676000      -0.40344000       6.91798000
H        1.42742000      -0.28536000       7.04831000
H        3.11124000       0.36819000       5.46693000
O        3.92060000       0.70376000       5.09614000
H        4.57574000       0.27110000       5.68803000
