9
Properties=species:S:1:pos:R:3 frame=T 44=T |=T Written=T by=T MDAnalysis=T XYZWriter=T (release=T 2.4.3)=T pbc="F F F"
H       10.77628000     -13.27876000      -3.63087000
O       10.01679000     -13.13062000      -4.22346000
H        9.65186000     -14.00587000      -4.24859000
H        9.49884000     -11.65065000      -5.75285000
O        9.92820000     -10.98117000      -6.31796000
H       10.87695000     -11.04467000      -6.15694000
H        8.39493000     -12.23918000      -2.14541000
O        8.25784000     -11.56876000      -2.81581000
H        8.95165000     -11.82093000      -3.46594000
