9
Properties=species:S:1:pos:R:3 frame=T 22=T |=T Written=T by=T MDAnalysis=T XYZWriter=T (release=T 2.4.3)=T pbc="F F F"
H       10.45116000       1.96218000      -5.51085000
O        9.80941000       2.38430000      -6.09579000
H        9.34735000       3.01928000      -5.52451000
H       10.51104000       0.11933000      -4.54232000
O       11.32775000       0.42020000      -4.96732000
H       11.88848000       0.54274000      -4.22098000
H        8.44549000      -1.46012000      -4.09965000
O        8.60302000      -0.55572000      -4.38107000
H        7.75484000      -0.31337000      -4.79683000
