9
Properties=species:S:1:pos:R:3 frame=T 51=T |=T Written=T by=T MDAnalysis=T XYZWriter=T (release=T 2.4.3)=T pbc="F F F"
H       12.78418000      16.33161000     -15.66561000
O       12.04192000      16.55488000     -15.07595000
H       12.38773000      17.29543000     -14.56355000
H       15.63323000      16.45169000     -16.92672000
O       14.75476000      16.29866000     -16.63695000
H       14.25543000      16.93410000     -17.17378000
H       15.77837000      15.01577000     -14.01304000
O       14.86818000      15.32167000     -13.95975000
H       14.74647000      15.81392000     -14.77687000
