9
Properties=species:S:1:pos:R:3 frame=T 79=T |=T Written=T by=T MDAnalysis=T XYZWriter=T (release=T 2.4.3)=T pbc="F F F"
H       -6.87872000      18.10595000      -3.68389000
O       -6.92279000      17.16773000      -3.83201000
H       -7.89417000      17.07065000      -3.90937000
H      -10.21558000      16.76872000      -4.33273000
O       -9.46844000      16.70231000      -4.94033000
H       -9.66525000      15.94978000      -5.50948000
H       -7.00082000      16.50183000      -6.03117000
O       -6.42608000      15.92630000      -6.55743000
H       -7.06043000      15.63327000      -7.21134000
