9
Properties=species:S:1:pos:R:3 frame=T 87=T |=T Written=T by=T MDAnalysis=T XYZWriter=T (release=T 2.4.3)=T pbc="F F F"
H        3.36439000     -13.04977000       8.57070000
O        3.59882000     -13.94328000       8.28232000
H        4.39264000     -13.78951000       7.74422000
H        8.14003000     -12.08757000       6.04069000
O        7.64459000     -12.04251000       5.19860000
H        7.06441000     -12.81840000       5.33001000
H        5.83527000     -14.40732000       5.58270000
O        5.86437000     -13.99116000       6.46271000
H        6.57054000     -14.46330000       6.92553000
