9
Properties=species:S:1:pos:R:3 frame=T 93=T |=T Written=T by=T MDAnalysis=T XYZWriter=T (release=T 2.4.3)=T pbc="F F F"
H      -12.57616000      10.27952000     -13.89655000
O      -12.47146000      10.15188000     -12.94763000
H      -11.53399000      10.02503000     -12.82828000
H      -11.92331000      12.09812000     -17.77068000
O      -12.55509000      11.43828000     -18.06052000
H      -12.97930000      11.14664000     -17.27058000
H      -13.26914000       9.48976000     -15.74813000
O      -13.17558000      10.41111000     -15.48510000
H      -14.09830000      10.66062000     -15.27166000
