9
Properties=species:S:1:pos:R:3 frame=T 72=T |=T Written=T by=T MDAnalysis=T XYZWriter=T (release=T 2.4.3)=T pbc="F F F"
H       -9.51433000     -15.80233000      -3.51750000
O       -9.71137000     -14.91106000      -3.19064000
H       -9.34428000     -14.89243000      -2.31180000
H       -9.03583000     -17.40399000      -4.77307000
O       -8.97583000     -17.37902000      -3.79790000
H       -8.02097000     -17.20682000      -3.58257000
H       -8.86260000     -17.70948000      -6.90604000
O       -8.67552000     -16.89842000      -6.36524000
H       -9.46582000     -16.36394000      -6.52942000
