9
Properties=species:S:1:pos:R:3 frame=T 34=T |=T Written=T by=T MDAnalysis=T XYZWriter=T (release=T 2.4.3)=T pbc="F F F"
H       -1.26071000      10.34322000      16.44315000
O       -0.79564000       9.84805000      17.11303000
H       -1.11501000      10.20515000      17.94992000
H       -2.35811000      11.62314000      14.23507000
O       -2.06067000      11.09124000      14.97373000
H       -2.90418000      10.73086000      15.27486000
H       -0.23647000      12.45384000      16.24941000
O       -0.94181000      13.01734000      16.63767000
H       -1.76272000      12.55546000      16.43791000
