9
Properties=species:S:1:pos:R:3 frame=T 75=T |=T Written=T by=T MDAnalysis=T XYZWriter=T (release=T 2.4.3)=T pbc="F F F"
H        9.43915000     -11.58399000       9.23764000
O        9.24657000     -10.94310000       8.55938000
H        9.96749000     -10.29830000       8.67240000
H        9.10627000     -13.13091000      10.51828000
O        9.96001000     -12.66249000      10.49549000
H       10.06415000     -12.30302000      11.38237000
H        7.34454000     -15.08492000      10.65237000
O        7.70970000     -14.42394000      10.03629000
H        7.58903000     -14.84257000       9.16338000
