9
Properties=species:S:1:pos:R:3 frame=T 16=T |=T Written=T by=T MDAnalysis=T XYZWriter=T (release=T 2.4.3)=T pbc="F F F"
H        9.18967000      14.21498000     -13.78907000
O        8.66417000      14.88733000     -13.33488000
H        8.83458000      15.71251000     -13.81421000
H        6.80674000      15.18790000     -10.22401000
O        6.92136000      15.84025000     -10.90810000
H        7.48594000      15.39351000     -11.55552000
H        7.68750000      13.26182000     -12.72104000
O        7.06139000      12.60516000     -12.34896000
H        7.22808000      11.79397000     -12.84710000
