9
Properties=species:S:1:pos:R:3 frame=T 65=T |=T Written=T by=T MDAnalysis=T XYZWriter=T (release=T 2.4.3)=T pbc="F F F"
H      -15.45975000      14.11388000     -10.23527000
O      -15.66367000      13.51203000      -9.53943000
H      -15.74292000      14.12616000      -8.79214000
H      -18.15205000      15.61264000     -11.30229000
O      -18.43714000      15.01510000     -10.59637000
H      -17.68561000      14.46856000     -10.42295000
H      -17.37685000      17.64145000      -9.47365000
O      -17.77823000      17.07687000      -8.82755000
H      -18.29301000      16.44507000      -9.36949000
