9
Properties=species:S:1:pos:R:3 frame=T 2=T |=T Written=T by=T MDAnalysis=T XYZWriter=T (release=T 2.4.3)=T pbc="F F F"
H       -0.54950000       5.67192000      12.59631000
O        0.32669000       5.50960000      12.20581000
H        0.80610000       6.29569000      12.53533000
H       -2.67880000       5.71523000      11.49116000
O       -2.50262000       5.05009000      12.17631000
H       -3.10887000       4.33260000      11.95177000
H       -1.64944000       4.35926000      15.36060000
O       -2.54550000       4.51670000      15.01012000
H       -2.45776000       4.67753000      14.06485000
