9
Properties=species:S:1:pos:R:3 frame=T 99=T |=T Written=T by=T MDAnalysis=T XYZWriter=T (release=T 2.4.3)=T pbc="F F F"
H       -1.18746000      -1.78632000     -14.69763000
O       -0.47757000      -2.38476000     -14.88704000
H        0.07009000      -2.31795000     -14.09533000
H        2.45617000      -0.58310000     -16.43004000
O        1.60847000      -1.01334000     -16.64185000
H        1.26230000      -1.32348000     -15.78334000
H       -0.15617000      -4.05088000     -15.54566000
O        0.14148000      -4.89716000     -15.90539000
H        0.92154000      -4.65878000     -16.43215000
