9
Properties=species:S:1:pos:R:3 frame=T 83=T |=T Written=T by=T MDAnalysis=T XYZWriter=T (release=T 2.4.3)=T pbc="F F F"
H        7.00850000       6.90590000      -2.48430000
O        6.14283000       6.49504000      -2.39528000
H        6.32236000       5.55460000      -2.49367000
H        6.76969000       6.55694000      -0.60683000
O        7.18585000       6.45325000       0.24962000
H        7.99333000       5.97336000       0.06285000
H        8.32317000       7.72269000       0.69641000
O        8.69591000       8.61470000       0.79240000
H        7.93667000       9.19551000       0.71801000
