9
Properties=species:S:1:pos:R:3 frame=T 55=T |=T Written=T by=T MDAnalysis=T XYZWriter=T (release=T 2.4.3)=T pbc="F F F"
H       18.98349000      17.36463000      -2.70221000
O       18.82868000      18.31499000      -2.49648000
H       18.79872000      18.70490000      -3.36937000
H       18.20749000      14.93060000      -2.23714000
O       18.70034000      15.73167000      -2.24905000
H       19.61211000      15.48828000      -2.51980000
H       16.90272000      17.02676000      -1.94208000
O       15.96129000      17.20135000      -1.76197000
H       15.87934000      18.17510000      -1.84702000
