9
Properties=species:S:1:pos:R:3 frame=T 45=T |=T Written=T by=T MDAnalysis=T XYZWriter=T (release=T 2.4.3)=T pbc="F F F"
H        3.18831000      12.39883000       7.49344000
O        4.10969000      12.27223000       7.25684000
H        4.25014000      11.37609000       7.55902000
H        6.82358000      12.04681000       6.50080000
O        6.25799000      12.24922000       5.75526000
H        5.38499000      12.33543000       6.13203000
H        4.46838000       9.74684000       8.67690000
O        3.99988000       9.51462000       7.88488000
H        4.70048000       9.46725000       7.22809000
