9
Properties=species:S:1:pos:R:3 frame=T 24=T |=T Written=T by=T MDAnalysis=T XYZWriter=T (release=T 2.4.3)=T pbc="F F F"
H      -14.38830000      -7.96297000      15.83171000
O      -14.27916000      -8.40473000      16.68729000
H      -14.54037000      -7.70157000      17.29297000
H      -12.96003000      -4.90192000      15.09578000
O      -12.30526000      -4.20802000      15.22543000
H      -11.66563000      -4.44213000      14.57341000
H      -15.38371000      -6.28689000      14.72460000
O      -14.43492000      -6.29710000      14.68274000
H      -14.24950000      -6.42768000      13.73156000
