9
Properties=species:S:1:pos:R:3 frame=T 83=T |=T Written=T by=T MDAnalysis=T XYZWriter=T (release=T 2.4.3)=T pbc="F F F"
H       11.92500000      -1.68140000      16.16680000
O       12.55545000      -2.22819000      16.63545000
H       12.70657000      -1.79696000      17.48117000
H       12.86951000      -4.07698000      16.77331000
O       13.19493000      -4.93966000      17.00545000
H       13.02056000      -5.46143000      16.23606000
H       14.52331000      -1.59118000      16.44763000
O       15.27732000      -1.77544000      17.01614000
H       15.47092000      -2.71748000      16.91044000
