9
Properties=species:S:1:pos:R:3 frame=T 1=T |=T Written=T by=T MDAnalysis=T XYZWriter=T (release=T 2.4.3)=T pbc="F F F"
H      -15.16273000       3.22218000      11.28452000
O      -15.92370000       2.77607000      11.70703000
H      -16.04981000       1.97756000      11.19402000
H      -17.79745000       0.30428000      10.32565000
O      -17.37732000       0.16246000      11.17392000
H      -16.92857000      -0.68839000      11.14939000
H      -14.91720000       1.38053000       8.47227000
O      -15.08636000       1.33100000       9.42636000
H      -14.47393000       1.96659000       9.80014000
