9
Properties=species:S:1:pos:R:3 frame=T 89=T |=T Written=T by=T MDAnalysis=T XYZWriter=T (release=T 2.4.3)=T pbc="F F F"
H       -7.09519000      16.26675000     -12.15321000
O       -6.78358000      17.01410000     -11.63238000
H       -7.03937000      17.79116000     -12.13885000
H       -9.60102000      16.21268000      -9.81738000
O       -9.50008000      16.84869000     -10.52252000
H       -8.53797000      16.82153000     -10.67527000
H       -5.62821000      16.49747000     -10.00659000
O       -5.52524000      16.48526000      -9.04816000
H       -4.59031000      16.61519000      -8.91432000
