9
Properties=species:S:1:pos:R:3 frame=T 50=T |=T Written=T by=T MDAnalysis=T XYZWriter=T (release=T 2.4.3)=T pbc="F F F"
H      -15.10891000     -11.79241000     -16.45663000
O      -15.30800000     -11.04569000     -17.06233000
H      -16.19024000     -11.29961000     -17.39355000
H      -14.46801000     -11.70366000     -19.36609000
O      -13.79388000     -12.37424000     -19.14365000
H      -13.70954000     -12.30400000     -18.19304000
H      -16.40088000     -13.90474000     -18.66983000
O      -15.54407000     -14.40060000     -18.66675000
H      -14.90393000     -13.80540000     -19.08335000
