9
Properties=species:S:1:pos:R:3 frame=T 81=T |=T Written=T by=T MDAnalysis=T XYZWriter=T (release=T 2.4.3)=T pbc="F F F"
H      -10.11267000      17.58406000      17.63031000
O       -9.18889000      17.30980000      17.58304000
H       -8.71411000      18.13852000      17.76511000
H      -11.14681000      15.78903000      16.05986000
O      -12.03000000      15.93828000      16.38352000
H      -12.14972000      15.23699000      17.00978000
H       -8.38416000      17.31301000      16.06786000
O       -7.77607000      17.29699000      15.30470000
H       -8.13485000      18.00206000      14.72760000
