9
Properties=species:S:1:pos:R:3 frame=T 77=T |=T Written=T by=T MDAnalysis=T XYZWriter=T (release=T 2.4.3)=T pbc="F F F"
H       17.27035000      -9.14971000       2.68454000
O       17.63469000      -9.78291000       3.30201000
H       18.43775000      -9.37873000       3.61646000
H       18.04808000      -6.55085000       2.43286000
O       18.70895000      -5.92651000       2.11719000
H       18.58746000      -5.18342000       2.69319000
H       15.29920000      -8.43036000       2.34810000
O       16.13499000      -8.02238000       2.06213000
H       15.82905000      -7.30348000       1.49874000
