9
Properties=species:S:1:pos:R:3 frame=T 76=T |=T Written=T by=T MDAnalysis=T XYZWriter=T (release=T 2.4.3)=T pbc="F F F"
H       -0.04743000      -9.09383000       3.21882000
O       -0.97250000      -9.36183000       3.17265000
H       -1.46245000      -8.56691000       3.27470000
H       -0.52254000      -6.63169000       6.31039000
O       -0.74406000      -7.44014000       5.78632000
H       -1.44608000      -7.14291000       5.17993000
H       -2.34778000      -5.95429000       2.97145000
O       -2.50067000      -6.57412000       3.69123000
H       -2.77339000      -5.97905000       4.42221000
