9
Properties=species:S:1:pos:R:3 frame=T 22=T |=T Written=T by=T MDAnalysis=T XYZWriter=T (release=T 2.4.3)=T pbc="F F F"
H       -6.94543000     -11.50680000      11.77634000
O       -7.73444000     -11.88749000      12.19710000
H       -7.60603000     -11.83784000      13.15617000
H       -9.30923000     -11.12521000      12.06080000
O      -10.04280000     -10.47754000      11.99852000
H      -10.82231000     -11.03452000      11.90491000
H       -9.05592000      -8.84684000      11.70375000
O       -8.35648000      -8.50753000      11.13681000
H       -7.96625000      -7.81812000      11.71519000
