9
Properties=species:S:1:pos:R:3 frame=T 23=T |=T Written=T by=T MDAnalysis=T XYZWriter=T (release=T 2.4.3)=T pbc="F F F"
H       19.43142000      12.68187000     -19.07734000
O       18.61156000      12.67452000     -18.55413000
H       18.00549000      12.29942000     -19.16620000
H       18.15479000       9.32016000     -17.77348000
O       17.48011000       9.25657000     -18.45704000
H       17.11415000       8.40513000     -18.34266000
H       16.62404000      15.19453000     -16.68787000
O       17.08735000      15.44742000     -17.48827000
H       17.18451000      14.59997000     -17.96097000
