9
Properties=species:S:1:pos:R:3 frame=T 31=T |=T Written=T by=T MDAnalysis=T XYZWriter=T (release=T 2.4.3)=T pbc="F F F"
H       10.20516000       5.55673000     -12.01889000
O       10.32293000       5.75181000     -11.07214000
H       10.47219000       6.70340000     -11.13909000
H        7.67510000       6.98886000      -9.68428000
O        7.85073000       7.64754000      -9.00321000
H        7.84883000       7.15589000      -8.15906000
H        7.67276000       7.08861000     -11.99643000
O        7.67165000       6.30970000     -11.42300000
H        8.61065000       6.12623000     -11.30289000
