9
Properties=species:S:1:pos:R:3 frame=T 20=T |=T Written=T by=T MDAnalysis=T XYZWriter=T (release=T 2.4.3)=T pbc="F F F"
H        7.06933000      11.93920000      13.10254000
O        7.55789000      11.93513000      12.27805000
H        8.42028000      12.24527000      12.56434000
H        8.36663000       9.88514000      12.28149000
O        9.33545000       9.71767000      12.31442000
H        9.70869000      10.57654000      12.07990000
H        5.68297000      12.85999000       9.31181000
O        5.69135000      12.99771000      10.27750000
H        6.46047000      12.51175000      10.55512000
