9
Properties=species:S:1:pos:R:3 frame=T 90=T |=T Written=T by=T MDAnalysis=T XYZWriter=T (release=T 2.4.3)=T pbc="F F F"
H       -0.35602000     -14.65883000      -4.60899000
O       -0.43841000     -14.41865000      -3.66904000
H        0.00985000     -15.12910000      -3.19910000
H        1.42383000     -16.84013000      -1.82939000
O        1.30612000     -16.35967000      -2.64021000
H        2.14356000     -15.87901000      -2.69456000
H        3.95436000     -14.36539000      -2.39376000
O        3.58199000     -14.98837000      -3.04584000
H        4.30223000     -15.43167000      -3.48958000
