9
Properties=species:S:1:pos:R:3 frame=T 20=T |=T Written=T by=T MDAnalysis=T XYZWriter=T (release=T 2.4.3)=T pbc="F F F"
H       15.44991000      12.40573000       0.40177000
O       15.02282000      12.14496000      -0.43795000
H       14.78006000      12.97153000      -0.80885000
H       16.82168000      14.80799000       1.81786000
O       17.09728000      15.69306000       1.63294000
H       17.94910000      15.54095000       1.20120000
H       15.68583000      13.68915000       2.98909000
O       16.20782000      13.19097000       2.34251000
H       17.13166000      13.16144000       2.67245000
