9
Properties=species:S:1:pos:R:3 frame=T 98=T |=T Written=T by=T MDAnalysis=T XYZWriter=T (release=T 2.4.3)=T pbc="F F F"
H       18.00490000      -6.67809000     -16.50353000
O       17.84849000      -6.43088000     -15.58244000
H       17.78749000      -5.48208000     -15.64782000
H       15.84348000      -4.94199000     -11.69818000
O       16.53048000      -5.25443000     -12.25971000
H       16.08109000      -5.91955000     -12.79148000
H       16.32985000      -7.06475000     -14.54157000
O       15.69827000      -7.33730000     -13.86618000
H       15.02552000      -7.81781000     -14.34271000
