9
Properties=species:S:1:pos:R:3 frame=T 56=T |=T Written=T by=T MDAnalysis=T XYZWriter=T (release=T 2.4.3)=T pbc="F F F"
H        5.95070000      19.33136000       7.95731000
O        6.53602000      18.61617000       8.28608000
H        6.52415000      18.01187000       7.53664000
H        4.08651000      17.76097000       9.15728000
O        4.51189000      18.14442000       9.93626000
H        5.36313000      18.48202000       9.63797000
H        5.07996000      16.71265000      11.43788000
O        5.71074000      16.27192000      11.99980000
H        5.56375000      15.35665000      11.75401000
