9
Properties=species:S:1:pos:R:3 frame=T 67=T |=T Written=T by=T MDAnalysis=T XYZWriter=T (release=T 2.4.3)=T pbc="F F F"
H       15.98143000     -12.25727000      17.12589000
O       15.08505000     -12.08661000      17.40103000
H       14.76001000     -12.95193000      17.66309000
H       12.02995000     -10.22852000      18.62008000
O       12.77036000     -10.61505000      18.13950000
H       12.63842000     -11.55925000      18.29470000
H       13.73772000     -15.13552000      17.97376000
O       13.81739000     -14.31952000      18.51324000
H       12.93472000     -13.91399000      18.39531000
