9
Properties=species:S:1:pos:R:3 frame=T 82=T |=T Written=T by=T MDAnalysis=T XYZWriter=T (release=T 2.4.3)=T pbc="F F F"
H      -10.27028000       0.28260000      -9.87787000
O       -9.98563000       0.37293000      -8.95335000
H      -10.48512000      -0.28442000      -8.46884000
H      -13.62767000       1.05876000     -11.30742000
O      -13.58818000       0.18784000     -11.70889000
H      -14.00310000       0.31813000     -12.60135000
H      -11.62708000       0.71288000     -11.54894000
O      -10.69330000       0.42525000     -11.51561000
H      -10.74007000      -0.51580000     -11.29165000
