9
Properties=species:S:1:pos:R:3 frame=T 82=T |=T Written=T by=T MDAnalysis=T XYZWriter=T (release=T 2.4.3)=T pbc="F F F"
H       -9.77715000     -17.94932000      12.43425000
O      -10.52397000     -17.56674000      12.86640000
H      -11.09146000     -18.32929000      13.02597000
H      -11.05643000     -17.04109000      11.17688000
O      -11.61448000     -16.43719000      10.70887000
H      -11.69282000     -15.70066000      11.32972000
H      -11.58572000     -13.89662000      13.31527000
O      -10.99640000     -14.34070000      12.69275000
H      -10.48002000     -14.95620000      13.22575000
