9
Properties=species:S:1:pos:R:3 frame=T 52=T |=T Written=T by=T MDAnalysis=T XYZWriter=T (release=T 2.4.3)=T pbc="F F F"
H        5.38130000       1.50205000       3.97968000
O        5.64925000       2.00814000       3.19161000
H        6.24131000       1.37200000       2.74809000
H        6.39883000      -1.21542000       5.05542000
O        5.82832000      -0.43326000       4.92029000
H        5.48913000      -0.24858000       5.76907000
H        3.10390000      -2.20944000       4.07418000
O        3.91660000      -1.94302000       3.61177000
H        4.26335000      -1.20978000       4.13715000
