9
Properties=species:S:1:pos:R:3 frame=T 86=T |=T Written=T by=T MDAnalysis=T XYZWriter=T (release=T 2.4.3)=T pbc="F F F"
H       -8.48521000      -8.43956000       8.96443000
O       -8.56976000      -8.96862000       8.15253000
H       -8.71360000      -8.29443000       7.48761000
H       -9.42919000      -6.45386000       6.21554000
O       -9.54749000      -7.34931000       5.89697000
H       -8.71238000      -7.56888000       5.44560000
H       -5.93425000      -8.20641000       7.72683000
O       -5.89192000      -8.90362000       7.05253000
H       -6.64907000      -9.37373000       7.36481000
