9
Properties=species:S:1:pos:R:3 frame=T 28=T |=T Written=T by=T MDAnalysis=T XYZWriter=T (release=T 2.4.3)=T pbc="F F F"
H       11.46064000      17.23918000     -14.73023000
O       10.63039000      17.67378000     -14.74718000
H        9.99375000      16.95095000     -14.73376000
H        8.44588000      15.44478000     -13.82167000
O        8.50997000      15.98619000     -14.61744000
H        8.01163000      16.76904000     -14.39814000
H        6.64535000      19.02560000     -15.45318000
O        7.14182000      18.53664000     -14.82877000
H        6.52801000      18.44195000     -14.10897000
