9
Properties=species:S:1:pos:R:3 frame=T 36=T |=T Written=T by=T MDAnalysis=T XYZWriter=T (release=T 2.4.3)=T pbc="F F F"
H       -3.60663000      -7.83124000       5.70189000
O       -3.06103000      -7.04101000       5.85471000
H       -3.70612000      -6.30411000       6.00589000
H       -5.09764000      -8.93307000       5.59453000
O       -5.12288000      -9.12124000       6.54519000
H       -4.33898000      -9.67694000       6.62376000
H       -3.01819000     -11.03316000       5.23102000
O       -3.10977000     -10.87574000       6.17931000
H       -3.58106000     -11.67451000       6.46758000
