9
Properties=species:S:1:pos:R:3 frame=T 79=T |=T Written=T by=T MDAnalysis=T XYZWriter=T (release=T 2.4.3)=T pbc="F F F"
H       15.29522000      -1.47188000       0.02307000
O       14.84220000      -1.93496000       0.74504000
H       14.33158000      -1.21554000       1.16467000
H       17.21034000      -1.55955000      -1.25124000
O       16.30471000      -1.49072000      -1.57383000
H       16.12701000      -2.27396000      -2.10512000
H       15.78772000       0.17751000      -2.47826000
O       15.11331000       0.82816000      -2.78224000
H       15.61005000       1.46470000      -3.32669000
