9
Properties=species:S:1:pos:R:3 frame=T 26=T |=T Written=T by=T MDAnalysis=T XYZWriter=T (release=T 2.4.3)=T pbc="F F F"
H        3.52202000     -10.05278000      -3.52653000
O        4.16345000     -10.34767000      -2.87596000
H        4.55343000      -9.51843000      -2.57117000
H        2.15581000     -12.43583000      -1.59281000
O        2.36058000     -11.59301000      -1.16928000
H        3.23411000     -11.37494000      -1.43841000
H        5.50640000     -11.42381000      -1.38980000
O        5.82865000     -12.34628000      -1.36409000
H        6.76766000     -12.25364000      -1.10763000
