9
Properties=species:S:1:pos:R:3 frame=T 37=T |=T Written=T by=T MDAnalysis=T XYZWriter=T (release=T 2.4.3)=T pbc="F F F"
H       16.30052000     -16.60848000      -5.68450000
O       15.93664000     -17.43979000      -5.94632000
H       15.24714000     -17.57099000      -5.29510000
H       17.46810000     -15.05281000      -5.46087000
O       17.04953000     -15.23745000      -4.61725000
H       16.47591000     -14.47173000      -4.47940000
H       17.41348000     -14.94848000      -8.07519000
O       17.82229000     -15.21284000      -7.21587000
H       18.72666000     -15.55232000      -7.44535000
