9
Properties=species:S:1:pos:R:3 frame=T 13=T |=T Written=T by=T MDAnalysis=T XYZWriter=T (release=T 2.4.3)=T pbc="F F F"
H       -2.50127000       9.97862000     -18.38511000
O       -1.70244000       9.45218000     -18.49656000
H       -0.99953000       9.95459000     -18.03891000
H       -2.41747000      12.50886000     -17.28685000
O       -3.06570000      11.98524000     -17.78460000
H       -3.54073000      11.57761000     -17.08108000
H       -2.29956000       8.54728000     -16.52804000
O       -2.59923000       7.79461000     -16.05014000
H       -2.30175000       7.93158000     -15.14345000
