9
Properties=species:S:1:pos:R:3 frame=T 25=T |=T Written=T by=T MDAnalysis=T XYZWriter=T (release=T 2.4.3)=T pbc="F F F"
H       13.69577000       1.38650000      -5.39933000
O       12.83791000       1.69438000      -5.05122000
H       12.18844000       0.99437000      -5.26296000
H       13.05753000      -2.53209000      -4.27267000
O       13.10154000      -3.25331000      -4.90593000
H       12.76155000      -2.88101000      -5.71079000
H       12.67132000      -0.73042000      -7.37551000
O       12.85509000      -0.89514000      -6.43648000
H       13.81550000      -0.99426000      -6.37271000
