9
Properties=species:S:1:pos:R:3 frame=T 68=T |=T Written=T by=T MDAnalysis=T XYZWriter=T (release=T 2.4.3)=T pbc="F F F"
H       -3.12089000      -5.58856000      -1.24015000
O       -3.95295000      -5.15310000      -1.01353000
H       -3.91375000      -5.13718000      -0.05362000
H       -1.63285000      -4.99131000       1.02017000
O       -1.73519000      -5.93303000       1.23376000
H       -1.62648000      -6.40228000       0.41442000
H       -5.36176000      -6.59159000      -0.90552000
O       -5.87388000      -7.34497000      -0.57304000
H       -6.80017000      -7.08204000      -0.67780000
