9
Properties=species:S:1:pos:R:3 frame=T 79=T |=T Written=T by=T MDAnalysis=T XYZWriter=T (release=T 2.4.3)=T pbc="F F F"
H       13.51021000       4.28268000      -5.07975000
O       12.88173000       4.33896000      -5.83884000
H       12.18374000       3.71918000      -5.63481000
H       10.78734000       1.38726000      -6.18837000
O       10.76300000       2.28037000      -6.54033000
H       11.29930000       2.16277000      -7.34047000
H       13.40605000       3.95155000      -8.95958000
O       12.72745000       3.50567000      -8.39871000
H       12.93737000       3.85941000      -7.51889000
