9
Properties=species:S:1:pos:R:3 frame=T 18=T |=T Written=T by=T MDAnalysis=T XYZWriter=T (release=T 2.4.3)=T pbc="F F F"
H       -5.17979000       2.06312000      11.74107000
O       -4.46282000       2.62225000      12.01816000
H       -4.19638000       3.08309000      11.18532000
H       -3.59827000       0.83524000      14.00931000
O       -4.14756000       0.04044000      13.95213000
H       -3.69752000      -0.57191000      14.55577000
H       -2.88944000       2.60391000      13.23647000
O       -2.39180000       1.99247000      13.78475000
H       -1.89590000       2.56266000      14.38548000
