9
Properties=species:S:1:pos:R:3 frame=T 10=T |=T Written=T by=T MDAnalysis=T XYZWriter=T (release=T 2.4.3)=T pbc="F F F"
H        4.24760000      16.97441000      11.00218000
O        4.26723000      15.99960000      11.11878000
H        3.34221000      15.73663000      11.12179000
H        1.92722000      13.50391000      12.05591000
O        2.51528000      13.80227000      11.33773000
H        1.87913000      13.80459000      10.61316000
H        3.35198000      12.42088000      10.99706000
O        3.92453000      11.64262000      10.89563000
H        3.79493000      11.07659000      11.64922000
