9
Properties=species:S:1:pos:R:3 frame=T 13=T |=T Written=T by=T MDAnalysis=T XYZWriter=T (release=T 2.4.3)=T pbc="F F F"
H      -19.02115000      16.95827000      10.33860000
O      -19.01654000      17.20334000       9.42151000
H      -18.49986000      18.01413000       9.41931000
H      -18.23192000      15.72707000       9.11974000
O      -17.67176000      15.00846000       8.84055000
H      -18.15438000      14.19842000       9.06760000
H      -18.49632000      17.85178000       6.41016000
O      -17.97017000      18.56771000       6.03916000
H      -18.20196000      18.56659000       5.10744000
