9
Properties=species:S:1:pos:R:3 frame=T 35=T |=T Written=T by=T MDAnalysis=T XYZWriter=T (release=T 2.4.3)=T pbc="F F F"
H       -7.36507000      11.45498000     -18.20197000
O       -7.87254000      10.68927000     -18.49219000
H       -8.55183000      10.54436000     -17.82973000
H       -8.31927000      13.65951000     -17.37356000
O       -8.85218000      13.57029000     -16.57985000
H       -9.71151000      13.94688000     -16.85475000
H       -5.69995000      11.07392000     -17.44179000
O       -5.41105000      11.96762000     -17.58818000
H       -5.45867000      12.12434000     -18.51053000
