9
Properties=species:S:1:pos:R:3 frame=T 57=T |=T Written=T by=T MDAnalysis=T XYZWriter=T (release=T 2.4.3)=T pbc="F F F"
H      -10.97147000      10.98495000      -2.77562000
O      -11.64639000      11.60084000      -3.13945000
H      -12.20321000      11.03856000      -3.70442000
H      -11.67021000      12.67283000      -1.49780000
O      -11.72980000      13.19299000      -0.65416000
H      -11.15895000      13.93809000      -0.86386000
H      -13.56322000      13.35439000      -1.30481000
O      -14.31105000      13.52299000      -1.91998000
H      -15.06682000      13.16584000      -1.44681000
