9
Properties=species:S:1:pos:R:3 frame=T 19=T |=T Written=T by=T MDAnalysis=T XYZWriter=T (release=T 2.4.3)=T pbc="F F F"
H      -15.63760000      16.94214000      10.89723000
O      -14.92080000      17.59259000      10.83933000
H      -15.01960000      18.15211000      11.65088000
H      -12.79108000      15.65140000      10.32412000
O      -12.44893000      16.54678000      10.34011000
H      -13.26373000      17.02754000      10.27777000
H      -15.71635000      15.36294000      12.38743000
O      -16.61169000      15.05430000      12.58776000
H      -17.08698000      15.87515000      12.75122000
