9
Properties=species:S:1:pos:R:3 frame=T 45=T |=T Written=T by=T MDAnalysis=T XYZWriter=T (release=T 2.4.3)=T pbc="F F F"
H        6.81171000      13.05604000      -9.24187000
O        7.29347000      13.70062000      -9.78390000
H        7.99679000      13.14240000     -10.16004000
H        7.46484000      14.76778000      -7.28368000
O        8.37869000      14.56768000      -7.45359000
H        8.38346000      14.33083000      -8.39098000
H        5.46300000      11.65744000     -11.28557000
O        6.25747000      12.08861000     -11.67631000
H        6.52204000      12.73447000     -11.02467000
