9
Properties=species:S:1:pos:R:3 frame=T 24=T |=T Written=T by=T MDAnalysis=T XYZWriter=T (release=T 2.4.3)=T pbc="F F F"
H        4.23276000       4.97740000      -2.10981000
O        3.95389000       5.70671000      -1.50777000
H        3.93939000       6.47716000      -2.07338000
H        2.20961000       8.31008000      -1.89078000
O        1.25516000       8.39442000      -1.76374000
H        0.97061000       8.73769000      -2.64017000
H        4.16588000       8.76841000      -1.79992000
O        3.76883000       8.23019000      -2.51323000
H        3.51476000       8.86867000      -3.17260000
