9
Properties=species:S:1:pos:R:3 frame=T 59=T |=T Written=T by=T MDAnalysis=T XYZWriter=T (release=T 2.4.3)=T pbc="F F F"
H       15.77969000      -4.36676000      -3.36658000
O       15.14207000      -5.06437000      -3.28473000
H       14.62735000      -5.06342000      -4.10262000
H       17.46260000      -4.74882000      -1.05603000
O       16.61262000      -5.17032000      -0.85730000
H       16.23372000      -5.46587000      -1.68469000
H       14.22165000      -5.21306000      -1.37651000
O       13.47804000      -5.71415000      -1.00913000
H       12.70430000      -5.16652000      -1.16984000
