9
Properties=species:S:1:pos:R:3 frame=T 66=T |=T Written=T by=T MDAnalysis=T XYZWriter=T (release=T 2.4.3)=T pbc="F F F"
H       -6.45656000       2.09081000     -11.29080000
O       -5.73872000       2.04521000     -11.88015000
H       -6.05475000       1.51776000     -12.62796000
H       -2.71578000       1.09265000     -11.75169000
O       -3.33748000       1.27487000     -12.45881000
H       -4.08133000       1.69239000     -12.01528000
H       -6.35050000       3.46787000     -12.93380000
O       -6.48622000       4.03677000     -13.68804000
H       -6.98186000       4.80687000     -13.36936000
