9
Properties=species:S:1:pos:R:3 frame=T 60=T |=T Written=T by=T MDAnalysis=T XYZWriter=T (release=T 2.4.3)=T pbc="F F F"
H       12.52714000      12.90675000     -13.14929000
O       11.89389000      12.20797000     -13.37221000
H       11.39361000      12.63479000     -14.09382000
H        8.90101000      12.72474000     -12.74130000
O        9.53258000      13.03829000     -12.08943000
H       10.30040000      12.47003000     -12.27847000
H       11.05922000       9.10162000     -13.95207000
O       10.91578000       9.77601000     -13.25622000
H       11.56095000      10.43958000     -13.47294000
