9
Properties=species:S:1:pos:R:3 frame=T 98=T |=T Written=T by=T MDAnalysis=T XYZWriter=T (release=T 2.4.3)=T pbc="F F F"
H       -8.49963000       9.21401000      -0.10481000
O       -8.34129000       8.42347000      -0.60025000
H       -9.09424000       7.87970000      -0.32418000
H       -9.36957000      10.11907000       2.67186000
O      -10.27107000       9.99751000       3.03347000
H      -10.63570000       9.50288000       2.29527000
H       -7.42385000      11.12498000       1.74993000
O       -8.15067000      10.57707000       1.47187000
H       -8.80862000      11.22840000       1.23894000
