9
Properties=species:S:1:pos:R:3 frame=T 96=T |=T Written=T by=T MDAnalysis=T XYZWriter=T (release=T 2.4.3)=T pbc="F F F"
H        4.13712000      -8.48907000       8.79491000
O        3.64558000      -8.19436000       7.99690000
H        4.31178000      -7.62732000       7.52974000
H        7.35805000      -8.30690000       6.88846000
O        7.84622000      -8.31610000       6.05442000
H        7.51336000      -7.54740000       5.59409000
H        5.59352000      -5.92584000       6.66195000
O        5.58218000      -6.56500000       7.37086000
H        5.45819000      -6.03327000       8.16399000
