9
Properties=species:S:1:pos:R:3 frame=T 24=T |=T Written=T by=T MDAnalysis=T XYZWriter=T (release=T 2.4.3)=T pbc="F F F"
H       -3.65881000      -1.25912000       5.45422000
O       -3.72970000      -1.97467000       4.80332000
H       -4.51029000      -2.41053000       5.09978000
H       -2.21463000      -4.48244000       5.61962000
O       -2.77520000      -4.02020000       6.26675000
H       -3.27133000      -3.34560000       5.76761000
H       -2.62194000      -1.49716000       2.03437000
O       -3.19318000      -0.80767000       2.39695000
H       -3.21698000      -1.08105000       3.32631000
