9
Properties=species:S:1:pos:R:3 frame=T 33=T |=T Written=T by=T MDAnalysis=T XYZWriter=T (release=T 2.4.3)=T pbc="F F F"
H      -13.40680000       5.09438000     -16.44275000
O      -13.36662000       6.05663000     -16.21013000
H      -13.80329000       6.53371000     -16.92893000
H      -12.37451000       7.95911000     -16.00102000
O      -12.42345000       8.79778000     -15.50735000
H      -13.19857000       8.61611000     -14.92141000
H      -15.18675000       8.11067000     -18.12198000
O      -15.19663000       7.14856000     -17.94203000
H      -15.32511000       6.75609000     -18.79800000
