9
Properties=species:S:1:pos:R:3 frame=T 8=T |=T Written=T by=T MDAnalysis=T XYZWriter=T (release=T 2.4.3)=T pbc="F F F"
H       -1.55408000      11.34721000       7.39230000
O       -1.33858000      10.43044000       7.65309000
H       -2.17601000       9.94552000       7.70078000
H       -0.58043000      13.61471000       7.81598000
O       -0.78689000      13.06956000       7.05581000
H       -0.01802000      12.44509000       6.93515000
H        2.18773000      11.64058000       6.73662000
O        1.37076000      11.18283000       6.58625000
H        1.37678000      10.98879000       5.64654000
