9
Properties=species:S:1:pos:R:3 frame=T 47=T |=T Written=T by=T MDAnalysis=T XYZWriter=T (release=T 2.4.3)=T pbc="F F F"
H       16.22041000      -3.16210000      15.07297000
O       16.64559000      -3.24963000      14.21003000
H       16.39826000      -2.43151000      13.71919000
H       17.53726000       0.07522000      13.44247000
O       17.52279000      -0.88538000      13.59906000
H       17.66929000      -0.91606000      14.58166000
H       14.58859000      -2.45095000      12.77534000
O       14.12429000      -2.73394000      11.94960000
H       14.19581000      -1.96652000      11.37794000
