9
Properties=species:S:1:pos:R:3 frame=T 34=T |=T Written=T by=T MDAnalysis=T XYZWriter=T (release=T 2.4.3)=T pbc="F F F"
H       -1.57291000     -16.33565000     -16.23081000
O       -0.64677000     -16.38662000     -16.49552000
H       -0.42989000     -15.46079000     -16.72099000
H       -0.10647000     -17.60764000     -15.66922000
O        0.33447000     -18.28380000     -15.12066000
H       -0.04986000     -19.13201000     -15.43472000
H        0.67182000     -16.29492000     -19.13834000
O       -0.16277000     -16.81707000     -19.09052000
H       -0.53218000     -16.69369000     -18.19341000
