9
Properties=species:S:1:pos:R:3 frame=T 48=T |=T Written=T by=T MDAnalysis=T XYZWriter=T (release=T 2.4.3)=T pbc="F F F"
H       14.12716000     -12.98660000      12.96399000
O       13.47283000     -13.65674000      13.18917000
H       12.66566000     -13.12156000      13.24853000
H       13.68223000     -11.27068000       9.78230000
O       13.69121000     -10.65010000      10.53034000
H       12.82059000     -10.75048000      10.90040000
H       15.92332000     -12.82590000      11.74594000
O       15.43365000     -12.10074000      12.15986000
H       15.07181000     -11.68541000      11.38448000
