9
Properties=species:S:1:pos:R:3 frame=T 75=T |=T Written=T by=T MDAnalysis=T XYZWriter=T (release=T 2.4.3)=T pbc="F F F"
H      -10.60222000      -3.48093000       9.81453000
O      -10.08583000      -3.73460000       9.05194000
H      -10.08143000      -2.98437000       8.47265000
H      -10.42354000       0.54084000       9.28791000
O      -10.43394000       1.50361000       9.48805000
H       -9.50184000       1.68026000       9.62917000
H      -10.60813000      -0.86094000       7.65097000
O       -9.97175000      -0.98703000       8.37402000
H       -9.15502000      -0.53838000       8.04209000
