9
Properties=species:S:1:pos:R:3 frame=T 93=T |=T Written=T by=T MDAnalysis=T XYZWriter=T (release=T 2.4.3)=T pbc="F F F"
H      -15.58869000       9.40247000      -0.49147000
O      -15.51226000       8.80329000      -1.24497000
H      -14.58332000       8.75588000      -1.34106000
H      -13.31667000       5.92143000      -1.64485000
O      -13.24563000       6.89928000      -1.73623000
H      -13.11061000       7.02387000      -2.67738000
H      -15.20473000       7.38624000      -0.07506000
O      -15.18790000       7.02332000       0.81195000
H      -15.96770000       6.47757000       0.81317000
