9
Properties=species:S:1:pos:R:3 frame=T 61=T |=T Written=T by=T MDAnalysis=T XYZWriter=T (release=T 2.4.3)=T pbc="F F F"
H      -12.39588000     -12.25546000      -0.95181000
O      -11.70674000     -12.80707000      -0.53201000
H      -11.11754000     -12.18649000      -0.05378000
H      -13.96926000     -11.15644000       1.63864000
O      -14.90876000     -10.89019000       1.58963000
H      -14.83522000      -9.95043000       1.48231000
H      -12.53894000     -13.00070000       1.34572000
O      -12.91268000     -12.72169000       2.21895000
H      -12.12566000     -12.78779000       2.77979000
