9
Properties=species:S:1:pos:R:3 frame=T 95=T |=T Written=T by=T MDAnalysis=T XYZWriter=T (release=T 2.4.3)=T pbc="F F F"
H       -8.70810000     -14.31380000      15.35175000
O       -8.91960000     -14.29039000      14.42599000
H       -8.24487000     -13.69379000      14.05481000
H       -6.75947000     -10.97769000      13.77143000
O       -6.51937000     -10.06985000      13.54768000
H       -5.88724000      -9.89807000      14.26486000
H       -8.29399000     -11.82686000      12.45975000
O       -7.66763000     -12.36237000      12.95838000
H       -6.93327000     -12.43797000      12.32733000
