9
Properties=species:S:1:pos:R:3 frame=T 54=T |=T Written=T by=T MDAnalysis=T XYZWriter=T (release=T 2.4.3)=T pbc="F F F"
H       15.25414000       0.21251000      18.24835000
O       14.59864000      -0.13949000      17.60985000
H       14.31255000       0.64651000      17.17771000
H       13.75214000      -1.58054000      18.46534000
O       13.72749000      -2.51154000      18.73745000
H       12.85597000      -2.65542000      19.14753000
H       14.59756000      -3.22014000      15.60476000
O       13.78856000      -3.12823000      16.07814000
H       14.10239000      -2.68838000      16.88094000
