9
Properties=species:S:1:pos:R:3 frame=T 73=T |=T Written=T by=T MDAnalysis=T XYZWriter=T (release=T 2.4.3)=T pbc="F F F"
H       -1.03069000      10.08764000      12.97749000
O       -1.38136000       9.83979000      12.09511000
H       -2.27309000       9.54457000      12.28474000
H       -0.58339000      11.53477000      15.37519000
O       -0.74564000      12.44102000      15.67943000
H       -1.60502000      12.67539000      15.30455000
H       -1.28549000       9.64489000      15.14741000
O       -0.53574000      10.00261000      14.65585000
H        0.20556000       9.60193000      15.09896000
