9
Properties=species:S:1:pos:R:3 frame=T 36=T |=T Written=T by=T MDAnalysis=T XYZWriter=T (release=T 2.4.3)=T pbc="F F F"
H       -2.21726000     -10.17779000       3.35455000
O       -1.48325000     -10.52725000       3.87954000
H       -1.09814000     -11.24303000       3.38684000
H        1.02006000      -9.93342000       2.40893000
O        1.46453000     -10.26681000       1.62427000
H        1.02796000      -9.82415000       0.89403000
H        1.09436000      -9.20415000       5.19218000
O        0.83434000      -9.35201000       4.28921000
H       -0.04121000      -9.74781000       4.39091000
