9
Properties=species:S:1:pos:R:3 frame=T 88=T |=T Written=T by=T MDAnalysis=T XYZWriter=T (release=T 2.4.3)=T pbc="F F F"
H       -8.68679000      -1.76803000      -8.89010000
O       -9.22930000      -2.30574000      -8.29956000
H      -10.11633000      -1.95262000      -8.49066000
H       -8.79420000      -1.55701000      -6.47460000
O       -8.45926000      -1.20151000      -5.66957000
H       -9.10509000      -0.57745000      -5.34838000
H       -8.18771000      -2.92580000      -5.20306000
O       -8.20897000      -3.89085000      -5.06927000
H       -7.95500000      -4.06202000      -4.17449000
