9
Properties=species:S:1:pos:R:3 frame=T 51=T |=T Written=T by=T MDAnalysis=T XYZWriter=T (release=T 2.4.3)=T pbc="F F F"
H       -5.57861000      -6.00006000      12.38052000
O       -5.36242000      -6.71166000      11.75903000
H       -4.39121000      -6.73719000      11.74511000
H       -2.20834000      -7.34186000      11.99348000
O       -2.61296000      -6.47687000      12.08406000
H       -2.42998000      -6.05413000      11.22163000
H       -1.51830000      -4.47685000      13.69834000
O       -1.93501000      -4.95722000      14.41500000
H       -2.35553000      -5.64000000      13.91693000
