9
Properties=species:S:1:pos:R:3 frame=T 11=T |=T Written=T by=T MDAnalysis=T XYZWriter=T (release=T 2.4.3)=T pbc="F F F"
H       14.58054000      14.69584000      16.19909000
O       14.20103000      15.58325000      16.38526000
H       13.62495000      15.74558000      15.60898000
H       15.68912000      12.98264000      16.15690000
O       14.75543000      12.81153000      16.26432000
H       14.65283000      12.82404000      17.22275000
H       17.22197000      10.40782000      16.35831000
O       16.27606000      10.31178000      16.21648000
H       15.90339000      11.17620000      16.48152000
