9
Properties=species:S:1:pos:R:3 frame=T 19=T |=T Written=T by=T MDAnalysis=T XYZWriter=T (release=T 2.4.3)=T pbc="F F F"
H      -16.72921000       4.40063000       4.59723000
O      -17.52427000       4.23761000       5.13340000
H      -18.01697000       3.58284000       4.62022000
H      -18.56690000       6.96323000       6.02317000
O      -18.66379000       6.17159000       6.54953000
H      -18.12410000       5.54204000       6.06669000
H      -17.72877000       5.35234000       3.07941000
O      -17.36644000       5.41775000       2.18121000
H      -16.69195000       6.13336000       2.23360000
