9
Properties=species:S:1:pos:R:3 frame=T 46=T |=T Written=T by=T MDAnalysis=T XYZWriter=T (release=T 2.4.3)=T pbc="F F F"
H      -14.07198000      -9.76228000      15.01191000
O      -13.26823000      -9.20833000      14.98448000
H      -13.58093000      -8.34359000      15.22961000
H      -15.30399000     -11.87750000      14.94285000
O      -14.69501000     -11.50936000      15.62399000
H      -15.27039000     -10.81577000      16.04956000
H      -10.79142000     -11.19622000      15.36560000
O      -11.63520000     -11.08830000      15.83615000
H      -12.05870000     -10.33121000      15.42329000
