9
Properties=species:S:1:pos:R:3 frame=T 36=T |=T Written=T by=T MDAnalysis=T XYZWriter=T (release=T 2.4.3)=T pbc="F F F"
H       -4.29871000      -1.18709000     -15.04894000
O       -3.58943000      -1.86344000     -15.18192000
H       -3.87734000      -2.67102000     -14.72970000
H       -1.97513000      -1.62740000     -15.93137000
O       -1.08391000      -1.41042000     -16.10791000
H       -1.15635000      -0.54489000     -16.54856000
H       -4.59654000      -2.56512000     -16.37374000
O       -5.26968000      -2.77008000     -17.03509000
H       -5.35279000      -3.72742000     -16.99387000
