9
Properties=species:S:1:pos:R:3 frame=T 27=T |=T Written=T by=T MDAnalysis=T XYZWriter=T (release=T 2.4.3)=T pbc="F F F"
H        3.78676000       3.59292000       4.88710000
O        4.62167000       4.01201000       5.11096000
H        4.50333000       4.89754000       4.70952000
H        2.14485000       5.82854000       5.60550000
O        2.74332000       5.93695000       4.85125000
H        3.24186000       6.73897000       5.06859000
H        1.35579000       5.88931000       3.55754000
O        0.85675000       5.98725000       2.71732000
H        1.36753000       6.59706000       2.17918000
