9
Properties=species:S:1:pos:R:3 frame=T 38=T |=T Written=T by=T MDAnalysis=T XYZWriter=T (release=T 2.4.3)=T pbc="F F F"
H       17.27016000      17.68789000       4.15003000
O       17.84559000      18.41843000       4.37304000
H       17.23900000      19.10641000       4.70079000
H       17.35917000      17.67116000       6.41094000
O       17.22524000      18.30217000       7.15122000
H       16.95974000      19.14241000       6.70530000
H       18.94343000      18.06150000       0.44729000
O       18.65936000      17.78180000       1.34276000
H       18.36935000      18.59703000       1.75182000
