9
Properties=species:S:1:pos:R:3 frame=T 61=T |=T Written=T by=T MDAnalysis=T XYZWriter=T (release=T 2.4.3)=T pbc="F F F"
H      -11.22785000      13.73885000     -13.37472000
O      -11.73217000      13.16402000     -13.94801000
H      -11.41017000      12.30461000     -13.71027000
H      -10.27969000      13.55731000     -15.08562000
O       -9.51101000      13.24667000     -15.58326000
H       -9.54189000      12.28374000     -15.44106000
H      -14.85882000      13.13273000     -15.05432000
O      -14.12231000      12.63178000     -15.45261000
H      -13.38371000      12.81774000     -14.82011000
