9
Properties=species:S:1:pos:R:3 frame=T 7=T |=T Written=T by=T MDAnalysis=T XYZWriter=T (release=T 2.4.3)=T pbc="F F F"
H       -1.59275000      10.18978000     -15.49574000
O       -0.68972000      10.02005000     -15.16574000
H       -0.09406000      10.23493000     -15.89271000
H        2.18546000      10.63629000     -16.20284000
O        1.36370000      10.87445000     -16.68418000
H        1.48309000      10.47918000     -17.57227000
H        1.17194000      12.60338000     -16.31969000
O        0.92818000      13.21303000     -15.58834000
H        1.12426000      14.13543000     -15.83281000
