9
Properties=species:S:1:pos:R:3 frame=T 90=T |=T Written=T by=T MDAnalysis=T XYZWriter=T (release=T 2.4.3)=T pbc="F F F"
H       -9.36144000      -4.21970000       8.50685000
O       -8.52067000      -4.23770000       8.00214000
H       -7.98154000      -3.56350000       8.45602000
H       -6.97781000      -2.42676000       6.26936000
O       -7.67586000      -2.79908000       5.75296000
H       -8.21971000      -3.23944000       6.42139000
H       -8.04641000      -6.06699000       8.01981000
O       -7.98075000      -6.91746000       7.49873000
H       -7.89768000      -6.59727000       6.60259000
