9
Properties=species:S:1:pos:R:3 frame=T 64=T |=T Written=T by=T MDAnalysis=T XYZWriter=T (release=T 2.4.3)=T pbc="F F F"
H       15.66381000      -3.33100000      -9.30355000
O       15.45489000      -4.07476000      -9.88318000
H       14.88110000      -4.64567000      -9.38405000
H       17.01466000      -4.90290000      -7.18697000
O       17.47783000      -5.31964000      -7.94237000
H       17.09281000      -4.86672000      -8.70180000
H       17.60419000      -7.16083000      -8.77610000
O       18.00405000      -8.03886000      -8.61808000
H       18.26591000      -7.99526000      -7.66088000
