9
Properties=species:S:1:pos:R:3 frame=T 89=T |=T Written=T by=T MDAnalysis=T XYZWriter=T (release=T 2.4.3)=T pbc="F F F"
H       19.02541000       1.04086000       8.85146000
O       18.57346000       0.40911000       8.28118000
H       18.38021000      -0.36341000       8.82804000
H       16.62513000       0.61297000       9.05015000
O       15.77608000       0.13764000       9.19245000
H       15.94441000      -0.38331000      10.01447000
H       18.14370000       2.88062000       8.12816000
O       17.37733000       3.44576000       8.28649000
H       17.66207000       4.34998000       8.08182000
