9
Properties=species:S:1:pos:R:3 frame=T 80=T |=T Written=T by=T MDAnalysis=T XYZWriter=T (release=T 2.4.3)=T pbc="F F F"
H       12.66547000       0.44822000       8.12177000
O       12.14036000       1.06158000       7.59312000
H       11.72873000       0.44433000       6.95659000
H       13.51336000       3.33158000       9.81428000
O       14.30339000       3.27607000       9.27296000
H       14.99364000       3.71998000       9.78215000
H       14.42018000      -0.20438000       8.12706000
O       14.29922000       0.23020000       8.98888000
H       14.29015000       1.16972000       8.75287000
