9
Properties=species:S:1:pos:R:3 frame=T 40=T |=T Written=T by=T MDAnalysis=T XYZWriter=T (release=T 2.4.3)=T pbc="F F F"
H       15.13589000       0.35009000      12.12924000
O       14.45020000       0.14464000      12.82209000
H       13.61933000       0.17059000      12.34039000
H       12.71817000       1.07242000      15.03852000
O       12.15064000       1.45361000      14.34685000
H       12.72810000       1.62958000      13.58526000
H       12.98437000       0.55396000      10.18057000
O       12.34011000       0.15466000      10.75933000
H       12.14313000      -0.70211000      10.33109000
