9
Properties=species:S:1:pos:R:3 frame=T 25=T |=T Written=T by=T MDAnalysis=T XYZWriter=T (release=T 2.4.3)=T pbc="F F F"
H        7.12000000      13.91999000       3.87731000
O        7.15293000      13.85626000       2.90802000
H        7.34060000      12.91599000       2.74897000
H        6.50335000      16.77195000       1.99943000
O        6.50470000      17.13936000       2.88770000
H        6.67972000      18.05960000       2.76832000
H        6.01222000      15.61478000       0.38422000
O        6.89491000      15.59603000       0.66749000
H        6.94533000      15.00218000       1.42408000
