9
Properties=species:S:1:pos:R:3 frame=T 89=T |=T Written=T by=T MDAnalysis=T XYZWriter=T (release=T 2.4.3)=T pbc="F F F"
H       12.36791000       9.11671000       5.71762000
O       11.92964000       8.30365000       5.43924000
H       11.72482000       7.80686000       6.24712000
H       13.26189000       5.29365000       6.66121000
O       12.77599000       4.62947000       6.17644000
H       13.42242000       4.40752000       5.48530000
H       11.07786000       6.13029000       7.61098000
O       11.58290000       6.94700000       7.70753000
H       10.94369000       7.63711000       7.94892000
