9
Properties=species:S:1:pos:R:3 frame=T 12=T |=T Written=T by=T MDAnalysis=T XYZWriter=T (release=T 2.4.3)=T pbc="F F F"
H        9.88450000      -3.34074000      -3.21158000
O        9.44030000      -4.19691000      -3.23494000
H       10.23126000      -4.75471000      -3.13168000
H       12.22646000      -2.14646000      -3.04570000
O       11.98103000      -3.08892000      -2.94231000
H       12.07890000      -3.49314000      -3.82641000
H       11.34022000      -6.24390000      -1.97921000
O       11.71940000      -6.28429000      -2.87430000
H       11.69385000      -7.26257000      -3.05185000
