9
Properties=species:S:1:pos:R:3 frame=T 95=T |=T Written=T by=T MDAnalysis=T XYZWriter=T (release=T 2.4.3)=T pbc="F F F"
H        5.32438000       5.03498000     -13.28990000
O        5.53077000       5.47289000     -12.44434000
H        5.25779000       6.40257000     -12.51124000
H        7.13515000       4.94115000     -13.28630000
O        7.88760000       4.92969000     -13.87290000
H        8.52537000       4.32943000     -13.50551000
H        4.14601000       3.40138000     -10.91891000
O        4.52606000       3.99320000     -10.25002000
H        4.94894000       4.61071000     -10.86773000
