9
Properties=species:S:1:pos:R:3 frame=T 12=T |=T Written=T by=T MDAnalysis=T XYZWriter=T (release=T 2.4.3)=T pbc="F F F"
H        3.62879000      -8.81070000       8.22404000
O        3.68000000      -9.61136000       8.76544000
H        3.03605000      -9.46080000       9.45753000
H        1.51304000     -10.41934000      10.53878000
O        1.97347000      -9.68678000      10.96952000
H        1.36071000      -8.94909000      11.01716000
H        4.29420000     -10.53735000      12.68964000
O        3.69875000     -11.18822000      12.27168000
H        3.23730000     -10.70898000      11.60949000
