9
Properties=species:S:1:pos:R:3 frame=T 36=T |=T Written=T by=T MDAnalysis=T XYZWriter=T (release=T 2.4.3)=T pbc="F F F"
H        8.39137000       1.95898000      18.74057000
O        8.48593000       2.25511000      17.79831000
H        8.84043000       3.14448000      17.89396000
H        9.68730000       4.57794000      15.88332000
O        9.73117000       4.49964000      14.91536000
H       10.65155000       4.21657000      14.76285000
H        8.23608000       5.30679000      17.20282000
O        8.99502000       4.73551000      17.40284000
H        9.57504000       5.28520000      18.00547000
