9
Properties=species:S:1:pos:R:3 frame=T 90=T |=T Written=T by=T MDAnalysis=T XYZWriter=T (release=T 2.4.3)=T pbc="F F F"
H      -11.52763000      -0.13188000       1.89818000
O      -11.42833000      -0.77958000       2.59538000
H      -12.21548000      -1.32844000       2.50120000
H      -11.23940000      -0.53579000      -0.24286000
O      -11.42573000       0.33164000       0.18132000
H      -10.66226000       0.43789000       0.71767000
H      -12.17567000      -2.93210000      -0.58740000
O      -11.54039000      -2.56241000      -1.20422000
H      -10.82172000      -3.19722000      -1.02820000
