9
Properties=species:S:1:pos:R:3 frame=T 94=T |=T Written=T by=T MDAnalysis=T XYZWriter=T (release=T 2.4.3)=T pbc="F F F"
H        5.96593000      -0.20709000       1.30673000
O        5.82013000      -1.03079000       0.85574000
H        4.94590000      -0.93716000       0.46518000
H        3.13485000       0.20272000       0.27259000
O        3.87251000       0.39712000      -0.32106000
H        3.57988000       0.15214000      -1.17079000
H        1.03989000      -0.04184000       1.06617000
O        1.58169000      -0.83074000       1.11399000
H        1.52980000      -1.18626000       0.21379000
