9
Properties=species:S:1:pos:R:3 frame=T 53=T |=T Written=T by=T MDAnalysis=T XYZWriter=T (release=T 2.4.3)=T pbc="F F F"
H      -16.65375000       2.78083000      14.82202000
O      -16.42705000       3.71217000      14.93756000
H      -16.02736000       3.98299000      14.10814000
H      -14.47316000       5.41170000      12.53353000
O      -14.72916000       5.27018000      13.45006000
H      -15.34210000       5.98354000      13.61217000
H      -15.74512000       7.96847000      12.80596000
O      -16.37947000       7.54839000      13.40397000
H      -17.06722000       7.21298000      12.80057000
