9
Properties=species:S:1:pos:R:3 frame=T 58=T |=T Written=T by=T MDAnalysis=T XYZWriter=T (release=T 2.4.3)=T pbc="F F F"
H      -16.53174000      12.89037000     -18.10869000
O      -15.92096000      12.11312000     -17.96557000
H      -16.38258000      11.41902000     -18.46788000
H      -17.91078000      13.94017000     -17.86545000
O      -17.23100000      14.40302000     -18.38619000
H      -17.00512000      15.14297000     -17.77751000
H      -16.22801000      14.96172000     -15.48723000
O      -16.53405000      15.88309000     -15.56497000
H      -15.79339000      16.26976000     -16.01595000
