9
Properties=species:S:1:pos:R:3 frame=T 48=T |=T Written=T by=T MDAnalysis=T XYZWriter=T (release=T 2.4.3)=T pbc="F F F"
H      -16.98683000     -16.16647000     -13.20537000
O      -16.48132000     -16.94609000     -13.47762000
H      -17.12173000     -17.65185000     -13.60282000
H      -18.74318000     -13.72265000     -15.77505000
O      -18.83142000     -14.48764000     -15.17531000
H      -17.95469000     -14.91005000     -15.19188000
H      -18.28696000     -14.26035000     -13.23224000
O      -17.97744000     -14.87068000     -12.55794000
H      -17.65653000     -14.26854000     -11.86599000
