9
Properties=species:S:1:pos:R:3 frame=T 69=T |=T Written=T by=T MDAnalysis=T XYZWriter=T (release=T 2.4.3)=T pbc="F F F"
H       -0.01762000     -16.83514000      16.31990000
O        0.88006000     -16.81066000      15.99238000
H        0.78090000     -16.96850000      15.03143000
H       -2.71665000     -16.94332000      16.54218000
O       -1.82276000     -16.67557000      16.82086000
H       -1.91962000     -15.72723000      16.99304000
H       -1.96285000     -15.19368000      14.65259000
O       -1.44819000     -15.53763000      13.91544000
H       -1.34349000     -16.50477000      14.07594000
