9
Properties=species:S:1:pos:R:3 frame=T 79=T |=T Written=T by=T MDAnalysis=T XYZWriter=T (release=T 2.4.3)=T pbc="F F F"
H      -10.19075000     -15.95789000      -6.76744000
O       -9.41327000     -16.16079000      -7.31370000
H       -8.62141000     -15.77571000      -6.88161000
H      -10.16363000     -12.95216000      -7.98407000
O       -9.54999000     -13.33373000      -8.64163000
H       -9.44085000     -14.23371000      -8.33012000
H       -8.22249000     -18.31983000      -8.57863000
O       -9.02527000     -18.04406000      -9.03395000
H       -9.37451000     -17.36393000      -8.44799000
