9
Properties=species:S:1:pos:R:3 frame=T 4=T |=T Written=T by=T MDAnalysis=T XYZWriter=T (release=T 2.4.3)=T pbc="F F F"
H       -5.85981000      11.41348000      -0.68044000
O       -5.30090000      10.80988000      -1.21137000
H       -5.84019000      10.52103000      -1.95398000
H       -2.76024000      10.04762000      -2.99378000
O       -2.89317000       9.56105000      -3.82888000
H       -2.03520000       9.61727000      -4.21003000
H       -2.24788000      11.55050000      -1.29141000
O       -2.54869000      10.64930000      -1.28784000
H       -3.49831000      10.70243000      -1.14478000
