9
Properties=species:S:1:pos:R:3 frame=T 31=T |=T Written=T by=T MDAnalysis=T XYZWriter=T (release=T 2.4.3)=T pbc="F F F"
H        8.33654000     -11.21882000      -7.42117000
O        8.34101000     -11.11398000      -6.46462000
H        7.66015000     -10.44339000      -6.35986000
H        8.80245000      -7.68043000      -3.86168000
O        8.66566000      -7.83730000      -4.81074000
H        8.87494000      -6.99097000      -5.19794000
H        6.42732000      -8.80074000      -6.25573000
O        6.55481000      -9.32861000      -5.45335000
H        7.21169000      -8.80746000      -4.98185000
