9
Properties=species:S:1:pos:R:3 frame=T 50=T |=T Written=T by=T MDAnalysis=T XYZWriter=T (release=T 2.4.3)=T pbc="F F F"
H       -3.29275000     -11.80353000     -15.19958000
O       -3.50379000     -12.67953000     -14.88092000
H       -4.45165000     -12.72933000     -15.07279000
H       -6.79006000     -13.74023000     -14.64548000
O       -6.11704000     -13.13078000     -14.94110000
H       -6.48529000     -12.26223000     -14.72069000
H       -6.68530000     -10.10470000     -14.45399000
O       -7.03413000     -10.88457000     -13.96290000
H       -7.97518000     -10.67587000     -13.80212000
