6
Properties=species:S:1:pos:R:3 frame=T 35=T |=T Written=T by=T MDAnalysis=T XYZWriter=T (release=T 2.4.3)=T pbc="F F F"
H        0.96053000     -11.52475000     -15.89256000
O        1.20068000     -12.17885000     -16.58230000
H        0.85795000     -11.77192000     -17.37270000
H       -1.67870000      -9.92107000     -18.79691000
O       -1.13141000     -10.67542000     -18.61266000
H       -1.62862000     -11.27809000     -18.05526000
