6
Properties=species:S:1:pos:R:3 frame=T 2=T |=T Written=T by=T MDAnalysis=T XYZWriter=T (release=T 2.4.3)=T pbc="F F F"
H       14.72970000      -1.74495000      -0.50848000
O       14.99425000      -0.83973000      -0.69935000
H       14.36710000      -0.27361000      -0.25831000
H       14.34569000       1.57628000       1.64484000
O       14.27394000       1.83874000       0.70761000
H       13.72816000       2.64293000       0.70732000
