6
Properties=species:S:1:pos:R:3 frame=T 3=T |=T Written=T by=T MDAnalysis=T XYZWriter=T (release=T 2.4.3)=T pbc="F F F"
H        0.85002000       3.18044000       3.86638000
O        1.64608000       3.23355000       4.43763000
H        2.20712000       2.46012000       4.18438000
H       -1.42824000       4.14031000       2.44864000
O       -0.99342000       4.20336000       3.30490000
H       -1.62718000       4.60247000       3.91592000
