6
Properties=species:S:1:pos:R:3 frame=T 28=T |=T Written=T by=T MDAnalysis=T XYZWriter=T (release=T 2.4.3)=T pbc="F F F"
H       -2.35026000      11.13224000     -17.37736000
O       -2.49943000      10.20349000     -17.40578000
H       -2.89914000      10.06706000     -16.52928000
H       -0.61068000       9.83560000     -15.43729000
O       -0.20689000       9.64336000     -16.29612000
H       -0.92801000       9.61894000     -16.89792000
