6
Properties=species:S:1:pos:R:3 frame=T 5=T |=T Written=T by=T MDAnalysis=T XYZWriter=T (release=T 2.4.3)=T pbc="F F F"
H        3.51718000      12.61266000      -1.35383000
O        2.88799000      12.10684000      -0.78981000
H        2.00647000      12.52452000      -0.85606000
H        3.16942000      13.10295000       0.55151000
O        3.22835000      13.86517000       1.13642000
H        3.07665000      14.66394000       0.59624000
