6
Properties=species:S:1:pos:R:3 frame=T 15=T |=T Written=T by=T MDAnalysis=T XYZWriter=T (release=T 2.4.3)=T pbc="F F F"
H      -14.43994000     -14.79303000      14.78781000
O      -14.55787000     -14.83046000      13.82308000
H      -14.34739000     -15.76354000      13.68952000
H      -14.37647000     -15.61679000      16.38234000
O      -13.95574000     -14.71805000      16.32471000
H      -14.73595000     -14.17129000      16.49618000
