6
Properties=species:S:1:pos:R:3 frame=T 27=T |=T Written=T by=T MDAnalysis=T XYZWriter=T (release=T 2.4.3)=T pbc="F F F"
H      -14.67831000       6.23745000       0.06336000
O      -14.01618000       6.28827000      -0.64234000
H      -14.27179000       5.57970000      -1.24214000
H      -15.77205000       7.80503000      -1.28824000
O      -15.19983000       8.43897000      -1.73361000
H      -14.37318000       8.03832000      -1.51163000
