6
Properties=species:S:1:pos:R:3 frame=T 51=T |=T Written=T by=T MDAnalysis=T XYZWriter=T (release=T 2.4.3)=T pbc="F F F"
H       -8.03723000      -1.86595000       8.40749000
O       -8.89540000      -1.44377000       8.12436000
H       -8.64337000      -0.58895000       7.73660000
H       -7.83734000       0.03380000       6.17312000
O       -7.87167000       0.76172000       6.78896000
H       -7.13666000       0.54439000       7.38216000
