6
Properties=species:S:1:pos:R:3 frame=T 19=T |=T Written=T by=T MDAnalysis=T XYZWriter=T (release=T 2.4.3)=T pbc="F F F"
H       17.64901000      -8.21916000       5.08721000
O       16.89957000      -8.03395000       4.47882000
H       16.91177000      -7.06041000       4.40346000
H       17.75109000      -6.91790000       2.05710000
O       18.20533000      -7.74060000       2.25590000
H       17.91027000      -7.96547000       3.15320000
