6
Properties=species:S:1:pos:R:3 frame=T 16=T |=T Written=T by=T MDAnalysis=T XYZWriter=T (release=T 2.4.3)=T pbc="F F F"
H       -5.51087000      -7.32878000       3.70610000
O       -5.68100000      -6.90258000       4.54048000
H       -5.74836000      -7.58089000       5.22875000
H       -4.44572000      -6.20789000       1.10800000
O       -4.34222000      -6.38865000       2.03553000
H       -3.47992000      -6.03287000       2.27795000
