6
Properties=species:S:1:pos:R:3 frame=T 14=T |=T Written=T by=T MDAnalysis=T XYZWriter=T (release=T 2.4.3)=T pbc="F F F"
H        8.59894000      -2.80653000       1.36493000
O        9.05746000      -3.51626000       0.90853000
H        9.89821000      -3.48015000       1.39611000
H        9.49130000      -1.80122000       2.45804000
O        8.61032000      -1.64750000       2.77241000
H        8.63905000      -0.68597000       2.78473000
