6
Properties=species:S:1:pos:R:3 frame=T 27=T |=T Written=T by=T MDAnalysis=T XYZWriter=T (release=T 2.4.3)=T pbc="F F F"
H       -1.49296000     -12.87740000       3.50055000
O       -1.78088000     -13.02858000       4.40518000
H       -0.95841000     -12.94057000       4.89092000
H       -4.94173000     -12.96312000       2.40417000
O       -4.34415000     -13.69216000       2.62744000
H       -3.45737000     -13.32149000       2.51915000
