6
Properties=species:S:1:pos:R:3 frame=T 27=T |=T Written=T by=T MDAnalysis=T XYZWriter=T (release=T 2.4.3)=T pbc="F F F"
H        2.81649000      17.26625000      10.15918000
O        2.78526000      17.94576000      10.84961000
H        3.07647000      18.74103000      10.36539000
H        0.51756000      17.27362000       9.27230000
O        0.24088000      17.94774000       9.90571000
H        1.10220000      18.17974000      10.32727000
