6
Properties=species:S:1:pos:R:3 frame=T 49=T |=T Written=T by=T MDAnalysis=T XYZWriter=T (release=T 2.4.3)=T pbc="F F F"
H      -17.45455000      17.72643000     -15.85749000
O      -17.97271000      17.70442000     -15.04941000
H      -17.39158000      18.27944000     -14.50577000
H      -13.72702000      19.05126000     -15.26921000
O      -14.66076000      18.87979000     -15.14326000
H      -14.99613000      18.72683000     -16.07575000
