6
Properties=species:S:1:pos:R:3 frame=T 17=T |=T Written=T by=T MDAnalysis=T XYZWriter=T (release=T 2.4.3)=T pbc="F F F"
H       17.32415000      13.43057000     -14.88317000
O       17.80439000      13.54197000     -15.70595000
H       17.34344000      13.03149000     -16.36327000
H       18.66882000      15.50743000     -16.33580000
O       19.08086000      15.91994000     -17.10821000
H       18.72793000      16.80867000     -17.06878000
