6
Properties=species:S:1:pos:R:3 frame=T 54=T |=T Written=T by=T MDAnalysis=T XYZWriter=T (release=T 2.4.3)=T pbc="F F F"
H        6.30224000      -5.54921000     -18.36271000
O        6.74600000      -6.36284000     -18.59835000
H        6.82791000      -6.70574000     -17.70658000
H        3.63063000      -6.29502000     -17.73022000
O        4.26185000      -6.99312000     -17.48377000
H        5.10422000      -6.74985000     -17.86880000
