6
Properties=species:S:1:pos:R:3 frame=T 12=T |=T Written=T by=T MDAnalysis=T XYZWriter=T (release=T 2.4.3)=T pbc="F F F"
H        8.07386000     -10.35499000      18.60862000
O        8.57250000      -9.83310000      17.96001000
H        9.45089000      -9.71719000      18.33047000
H        6.00457000      -9.73182000      17.52977000
O        6.02195000      -9.63978000      16.57132000
H        5.52746000      -8.84323000      16.36725000
