6
Properties=species:S:1:pos:R:3 frame=T 29=T |=T Written=T by=T MDAnalysis=T XYZWriter=T (release=T 2.4.3)=T pbc="F F F"
H      -17.06297000     -15.09141000       0.23304000
O      -16.87432000     -15.92420000      -0.15220000
H      -17.78091000     -16.28724000      -0.33584000
H      -13.63259000     -16.40591000      -0.33511000
O      -13.85852000     -16.09066000      -1.22050000
H      -14.79965000     -15.82423000      -1.05888000
