6
Properties=species:S:1:pos:R:3 frame=T 37=T |=T Written=T by=T MDAnalysis=T XYZWriter=T (release=T 2.4.3)=T pbc="F F F"
H       10.00436000     -19.03058000       8.99183000
O        9.07484000     -18.76303000       8.81403000
H        8.98440000     -18.86691000       7.86016000
H       12.81136000     -17.94545000       9.90179000
O       12.27737000     -18.69302000      10.12722000
H       12.74599000     -19.41706000       9.68097000
