6
Properties=species:S:1:pos:R:3 frame=T 42=T |=T Written=T by=T MDAnalysis=T XYZWriter=T (release=T 2.4.3)=T pbc="F F F"
H      -12.74955000     -18.96662000      13.95213000
O      -12.84271000     -18.07331000      13.53583000
H      -13.65135000     -17.74449000      13.95431000
H      -16.42137000     -17.74204000      13.95704000
O      -15.72733000     -17.23118000      14.39921000
H      -16.21397000     -16.99133000      15.20820000
