6
Properties=species:S:1:pos:R:3 frame=T 33=T |=T Written=T by=T MDAnalysis=T XYZWriter=T (release=T 2.4.3)=T pbc="F F F"
H       -9.64164000      13.35329000      -4.08047000
O       -9.79603000      13.13641000      -5.00101000
H       -9.33661000      12.28948000      -5.08025000
H      -11.70532000      14.33355000      -5.05595000
O      -12.51266000      14.86472000      -5.25469000
H      -12.24261000      15.47135000      -5.94576000
