6
Properties=species:S:1:pos:R:3 frame=T 39=T |=T Written=T by=T MDAnalysis=T XYZWriter=T (release=T 2.4.3)=T pbc="F F F"
H       -4.82641000      -3.99997000       9.46206000
O       -5.69472000      -4.38014000       9.34978000
H       -6.27378000      -3.82449000       9.90125000
H       -6.80913000      -2.10050000      10.18100000
O       -6.69104000      -1.73161000       9.29258000
H       -6.14608000      -2.40432000       8.86881000
