6
Properties=species:S:1:pos:R:3 frame=T 12=T |=T Written=T by=T MDAnalysis=T XYZWriter=T (release=T 2.4.3)=T pbc="F F F"
H        1.33634000      18.35230000     -13.95022000
O        1.32466000      18.49039000     -14.90322000
H        2.06882000      17.97090000     -15.24608000
H       -0.57143000      17.04317000     -15.84031000
O       -1.38226000      17.42020000     -16.25957000
H       -1.62595000      18.13888000     -15.65481000
