6
Properties=species:S:1:pos:R:3 frame=T 9=T |=T Written=T by=T MDAnalysis=T XYZWriter=T (release=T 2.4.3)=T pbc="F F F"
H       -8.37813000       4.10209000      16.78846000
O       -9.30018000       4.19674000      17.06402000
H       -9.28832000       5.05283000      17.51682000
H       -8.85169000       8.24530000      15.46958000
O       -9.30164000       7.47024000      15.86960000
H       -9.16526000       7.61220000      16.80703000
