6
Properties=species:S:1:pos:R:3 frame=T 31=T |=T Written=T by=T MDAnalysis=T XYZWriter=T (release=T 2.4.3)=T pbc="F F F"
H       -2.81312000     -13.76460000      -4.91423000
O       -1.96823000     -13.96029000      -4.46940000
H       -1.52383000     -14.54480000      -5.09682000
H       -0.49705000     -13.67564000      -7.06000000
O       -1.15904000     -13.03968000      -7.33482000
H       -1.67834000     -12.96648000      -6.50348000
