6
Properties=species:S:1:pos:R:3 frame=T 51=T |=T Written=T by=T MDAnalysis=T XYZWriter=T (release=T 2.4.3)=T pbc="F F F"
H      -11.60730000     -14.42689000       3.04502000
O      -11.86982000     -14.90286000       3.85169000
H      -12.54998000     -14.36372000       4.25063000
H      -14.34356000     -15.55136000       2.77509000
O      -14.06835000     -16.30046000       3.34654000
H      -13.17780000     -16.09073000       3.54481000
