6
Properties=species:S:1:pos:R:3 frame=T 15=T |=T Written=T by=T MDAnalysis=T XYZWriter=T (release=T 2.4.3)=T pbc="F F F"
H        4.74258000     -17.29156000       1.70555000
O        4.90707000     -18.00299000       2.28997000
H        4.27310000     -18.70181000       2.03938000
H        5.87974000     -17.00962000       5.61933000
O        5.38644000     -16.49443000       4.98531000
H        5.34009000     -17.11548000       4.24684000
