6
Properties=species:S:1:pos:R:3 frame=T 44=T |=T Written=T by=T MDAnalysis=T XYZWriter=T (release=T 2.4.3)=T pbc="F F F"
H       16.64661000       6.82516000      -5.03971000
O       15.75961000       6.87036000      -4.68617000
H       15.76133000       6.16753000      -4.01956000
H       18.00582000       6.37393000      -6.31277000
O       18.19133000       5.95572000      -5.45708000
H       17.66885000       5.14256000      -5.54160000
