6
Properties=species:S:1:pos:R:3 frame=T 14=T |=T Written=T by=T MDAnalysis=T XYZWriter=T (release=T 2.4.3)=T pbc="F F F"
H      -15.78093000      10.57189000      -5.17901000
O      -15.92816000      11.06279000      -4.34672000
H      -16.81620000      11.43476000      -4.45838000
H      -16.03587000       9.45984000      -3.15064000
O      -16.65157000       8.76498000      -2.99745000
H      -17.36888000       9.00706000      -3.63139000
