6
Properties=species:S:1:pos:R:3 frame=T 53=T |=T Written=T by=T MDAnalysis=T XYZWriter=T (release=T 2.4.3)=T pbc="F F F"
H       16.18708000     -14.00550000      -8.95900000
O       15.79971000     -14.24439000      -8.12790000
H       14.88953000     -13.95292000      -8.24780000
H       12.97309000     -12.85129000      -9.01536000
O       12.56025000     -13.43693000      -8.34513000
H       11.85558000     -12.89289000      -8.00870000
