6
Properties=species:S:1:pos:R:3 frame=T 44=T |=T Written=T by=T MDAnalysis=T XYZWriter=T (release=T 2.4.3)=T pbc="F F F"
H       -6.78679000       0.95358000       4.04328000
O       -6.63262000       0.48554000       4.87112000
H       -7.31764000      -0.23453000       4.97521000
H       -4.57341000       2.79225000       5.19497000
O       -3.95101000       2.54010000       4.50789000
H       -4.40189000       1.79126000       4.08394000
