6
Properties=species:S:1:pos:R:3 frame=T 35=T |=T Written=T by=T MDAnalysis=T XYZWriter=T (release=T 2.4.3)=T pbc="F F F"
H      -18.73355000       5.46151000      -0.08694000
O      -18.08928000       4.96863000       0.45246000
H      -18.08969000       4.08709000       0.02606000
H      -18.79593000       6.10581000       2.26151000
O      -18.50311000       6.60831000       3.02732000
H      -19.29597000       7.15175000       3.28708000
