6
Properties=species:S:1:pos:R:3 frame=T 29=T |=T Written=T by=T MDAnalysis=T XYZWriter=T (release=T 2.4.3)=T pbc="F F F"
H      -16.05409000      13.11460000       2.75789000
O      -16.78914000      13.65456000       3.05722000
H      -17.07558000      14.21578000       2.31876000
H      -15.46061000      14.95529000       4.61757000
O      -15.12219000      15.87411000       4.57612000
H      -14.18861000      15.78287000       4.85968000
