6
Properties=species:S:1:pos:R:3 frame=T 50=T |=T Written=T by=T MDAnalysis=T XYZWriter=T (release=T 2.4.3)=T pbc="F F F"
H      -17.18482000       9.86074000      13.10461000
O      -16.96764000      10.10689000      13.99987000
H      -16.02336000      10.27442000      13.99868000
H      -17.64067000      11.71099000      13.73867000
O      -17.71139000      12.52762000      13.22817000
H      -16.78240000      12.83033000      13.30580000
