6
Properties=species:S:1:pos:R:3 frame=T 30=T |=T Written=T by=T MDAnalysis=T XYZWriter=T (release=T 2.4.3)=T pbc="F F F"
H        3.79697000       0.08141000      15.36920000
O        4.62192000      -0.16609000      14.94671000
H        4.75077000       0.65439000      14.43774000
H        5.05153000       0.59155000      16.52652000
O        5.47197000       1.19377000      17.17522000
H        4.81985000       1.86832000      17.24489000
