6
Properties=species:S:1:pos:R:3 frame=T 51=T |=T Written=T by=T MDAnalysis=T XYZWriter=T (release=T 2.4.3)=T pbc="F F F"
H      -16.97342000      13.06469000      13.28774000
O      -17.01398000      13.19691000      12.34870000
H      -16.13778000      13.58780000      12.17589000
H      -17.00103000      11.48796000      10.82475000
O      -17.35308000      10.56686000      10.83719000
H      -17.84186000      10.55468000      10.00264000
