6
Properties=species:S:1:pos:R:3 frame=T 20=T |=T Written=T by=T MDAnalysis=T XYZWriter=T (release=T 2.4.3)=T pbc="F F F"
H        7.05892000      -0.95803000      -8.33762000
O        6.09006000      -0.93606000      -8.41426000
H        5.89041000      -1.81695000      -8.09249000
H        7.87476000      -2.95180000      -7.18672000
O        7.31959000      -3.69658000      -7.36755000
H        7.35401000      -3.79980000      -8.32609000
