6
Properties=species:S:1:pos:R:3 frame=T 40=T |=T Written=T by=T MDAnalysis=T XYZWriter=T (release=T 2.4.3)=T pbc="F F F"
H        6.91559000      14.81495000       6.89702000
O        6.60141000      13.94239000       6.59089000
H        6.26337000      13.49251000       7.36809000
H        4.99851000      14.49387000       6.87005000
O        4.16865000      14.91715000       7.18658000
H        4.07784000      15.67475000       6.56454000
