6
Properties=species:S:1:pos:R:3 frame=T 27=T |=T Written=T by=T MDAnalysis=T XYZWriter=T (release=T 2.4.3)=T pbc="F F F"
H       12.94742000      10.46210000      15.75454000
O       12.36103000      10.97081000      15.15993000
H       12.85638000      11.71843000      14.86837000
H       13.44420000      12.85155000      12.40882000
O       13.71044000      12.89620000      13.35703000
H       14.24602000      13.66048000      13.39076000
