6
Properties=species:S:1:pos:R:3 frame=T 28=T |=T Written=T by=T MDAnalysis=T XYZWriter=T (release=T 2.4.3)=T pbc="F F F"
H       15.52094000       5.29322000      17.75700000
O       16.19907000       5.63344000      17.15145000
H       16.92178000       5.00411000      17.22858000
H       12.60995000       5.29682000      16.86758000
O       12.94325000       5.85787000      17.56612000
H       12.82256000       6.76833000      17.21878000
