6
Properties=species:S:1:pos:R:3 frame=T 44=T |=T Written=T by=T MDAnalysis=T XYZWriter=T (release=T 2.4.3)=T pbc="F F F"
H       -4.97354000      -3.76143000     -16.60202000
O       -5.73242000      -3.28743000     -16.22798000
H       -6.46932000      -3.82609000     -16.45758000
H       -3.22840000      -4.20698000     -16.91026000
O       -3.85946000      -4.92358000     -16.99421000
H       -3.94276000      -5.27157000     -16.11551000
