6
Properties=species:S:1:pos:R:3 frame=T 47=T |=T Written=T by=T MDAnalysis=T XYZWriter=T (release=T 2.4.3)=T pbc="F F F"
H        8.43800000     -15.63248000     -11.95487000
O        8.62857000     -14.70163000     -11.80910000
H        8.46443000     -14.31763000     -12.69063000
H        7.14720000     -16.72578000     -12.75851000
O        7.88287000     -17.26531000     -12.44067000
H        7.71845000     -17.31979000     -11.48893000
