6
Properties=species:S:1:pos:R:3 frame=T 3=T |=T Written=T by=T MDAnalysis=T XYZWriter=T (release=T 2.4.3)=T pbc="F F F"
H        7.75738000      -0.96928000       1.38846000
O        8.36205000      -1.72374000       1.33165000
H        8.91483000      -1.56376000       2.10127000
H        6.57241000       0.73527000       2.02185000
O        6.33276000      -0.18796000       1.93519000
H        6.64012000      -0.54483000       2.77289000
