6
Properties=species:S:1:pos:R:3 frame=T 32=T |=T Written=T by=T MDAnalysis=T XYZWriter=T (release=T 2.4.3)=T pbc="F F F"
H       18.14471000       6.62389000      -5.33005000
O       17.55098000       7.36349000      -5.39196000
H       17.78257000       7.90569000      -4.64728000
H       16.73833000       8.03344000      -1.91704000
O       17.53018000       8.36731000      -1.48456000
H       18.25751000       8.23522000      -2.11685000
