6
Properties=species:S:1:pos:R:3 frame=T 16=T |=T Written=T by=T MDAnalysis=T XYZWriter=T (release=T 2.4.3)=T pbc="F F F"
H        3.42263000      14.71619000      -4.51378000
O        3.23324000      14.12589000      -5.24442000
H        3.00551000      14.73321000      -5.97198000
H        4.87381000      13.33482000      -1.94186000
O        4.76053000      14.15013000      -2.48652000
H        3.82270000      14.42733000      -2.35542000
