6
Properties=species:S:1:pos:R:3 frame=T 27=T |=T Written=T by=T MDAnalysis=T XYZWriter=T (release=T 2.4.3)=T pbc="F F F"
H       -7.34878000     -16.22297000     -16.39232000
O       -6.77494000     -16.99112000     -16.40332000
H       -6.58816000     -17.12606000     -17.34158000
H       -8.53309000     -18.15743000     -16.09858000
O       -8.64799000     -18.96560000     -16.55642000
H       -7.73229000     -19.19905000     -16.76018000
