6
Properties=species:S:1:pos:R:3 frame=T 42=T |=T Written=T by=T MDAnalysis=T XYZWriter=T (release=T 2.4.3)=T pbc="F F F"
H       12.68647000     -10.58101000     -11.89063000
O       12.79844000     -10.28074000     -12.79557000
H       12.03768000     -10.65831000     -13.28957000
H       11.41286000     -11.27799000     -15.51147000
O       11.21651000     -10.38067000     -15.25110000
H       10.72619000     -10.05500000     -16.00443000
