6
Properties=species:S:1:pos:R:3 frame=T 39=T |=T Written=T by=T MDAnalysis=T XYZWriter=T (release=T 2.4.3)=T pbc="F F F"
H        0.52697000      -5.52191000      -7.24843000
O        0.85560000      -5.01599000      -6.49748000
H        1.45558000      -4.35619000      -6.89926000
H       -1.32405000      -6.45364000      -8.71571000
O       -0.40476000      -6.73094000      -8.67654000
H       -0.33623000      -7.25828000      -9.48674000
