6
Properties=species:S:1:pos:R:3 frame=T 41=T |=T Written=T by=T MDAnalysis=T XYZWriter=T (release=T 2.4.3)=T pbc="F F F"
H      -18.98600000      -2.74404000      -6.37532000
O      -18.11807000      -2.50093000      -6.03247000
H      -17.77545000      -1.86602000      -6.67073000
H      -18.16002000      -6.73953000      -6.19090000
O      -18.63890000      -6.23375000      -6.86547000
H      -19.13954000      -5.58027000      -6.36904000
