6
Properties=species:S:1:pos:R:3 frame=T 26=T |=T Written=T by=T MDAnalysis=T XYZWriter=T (release=T 2.4.3)=T pbc="F F F"
H      -16.55063000     -10.16790000       1.28612000
O      -16.54296000      -9.70109000       0.44611000
H      -17.47209000      -9.74939000       0.14514000
H      -16.49026000     -12.84481000       2.87467000
O      -16.26339000     -11.89396000       2.91775000
H      -16.44713000     -11.63343000       3.82182000
