6
Properties=species:S:1:pos:R:3 frame=T 45=T |=T Written=T by=T MDAnalysis=T XYZWriter=T (release=T 2.4.3)=T pbc="F F F"
H       10.40638000       8.97227000      16.17210000
O       10.21817000       8.02186000      16.29674000
H        9.99928000       7.80700000      15.38053000
H        9.59962000       7.37591000      18.13322000
O        9.37011000       6.58111000      18.64283000
H        9.54526000       6.83873000      19.56367000
