6
Properties=species:S:1:pos:R:3 frame=T 19=T |=T Written=T by=T MDAnalysis=T XYZWriter=T (release=T 2.4.3)=T pbc="F F F"
H       12.09753000      -4.07027000      -6.49511000
O       12.66698000      -4.33483000      -5.79495000
H       12.70525000      -3.47869000      -5.30833000
H       12.45622000      -4.17649000      -8.57178000
O       13.39335000      -4.37292000      -8.40980000
H       13.42070000      -4.79308000      -7.54639000
