6
Properties=species:S:1:pos:R:3 frame=T 21=T |=T Written=T by=T MDAnalysis=T XYZWriter=T (release=T 2.4.3)=T pbc="F F F"
H        6.30674000       1.04399000     -12.73035000
O        5.66594000       0.58080000     -12.17607000
H        5.63867000      -0.29800000     -12.54758000
H        7.86636000       1.86013000     -12.17383000
O        7.79872000       2.10626000     -13.14383000
H        7.96758000       1.26667000     -13.58538000
