6
Properties=species:S:1:pos:R:3 frame=T 42=T |=T Written=T by=T MDAnalysis=T XYZWriter=T (release=T 2.4.3)=T pbc="F F F"
H        0.67795000       9.51096000      16.74449000
O        0.26190000      10.01381000      16.04185000
H        0.77597000       9.86024000      15.25639000
H        3.81108000      12.38277000      16.08599000
O        3.61817000      11.74644000      15.36676000
H        2.90132000      11.19564000      15.71869000
