6
Properties=species:S:1:pos:R:3 frame=T 34=T |=T Written=T by=T MDAnalysis=T XYZWriter=T (release=T 2.4.3)=T pbc="F F F"
H       12.42546000      -8.55290000       2.93893000
O       13.16331000      -8.76369000       3.48692000
H       13.42546000      -9.60567000       3.10001000
H       12.44803000      -9.13960000       0.81274000
O       12.82229000      -8.25537000       0.69284000
H       13.74313000      -8.43912000       0.51457000
