6
Properties=species:S:1:pos:R:3 frame=T 21=T |=T Written=T by=T MDAnalysis=T XYZWriter=T (release=T 2.4.3)=T pbc="F F F"
H      -12.33877000       1.74050000      17.88681000
O      -12.00617000       2.48053000      17.35715000
H      -11.71748000       2.08160000      16.55079000
H      -13.34828000       0.09834000      17.21998000
O      -13.09418000       0.12430000      18.12697000
H      -13.83418000       0.55086000      18.54772000
