6
Properties=species:S:1:pos:R:3 frame=T 28=T |=T Written=T by=T MDAnalysis=T XYZWriter=T (release=T 2.4.3)=T pbc="F F F"
H        8.29221000      -1.96107000      17.56410000
O        7.83753000      -2.78952000      17.54017000
H        7.88239000      -2.94572000      16.57740000
H        6.29000000      -4.31081000      19.49951000
O        6.47849000      -5.14550000      19.05279000
H        7.18100000      -4.82548000      18.45741000
