6
Properties=species:S:1:pos:R:3 frame=T 31=T |=T Written=T by=T MDAnalysis=T XYZWriter=T (release=T 2.4.3)=T pbc="F F F"
H      -11.59104000       7.41126000      17.15252000
O      -11.51220000       6.46959000      16.96081000
H      -12.14625000       6.41268000      16.23481000
H      -13.70464000       5.26314000      15.59086000
O      -13.36866000       6.02197000      15.09667000
H      -13.75922000       6.78270000      15.56789000
