6
Properties=species:S:1:pos:R:3 frame=T 29=T |=T Written=T by=T MDAnalysis=T XYZWriter=T (release=T 2.4.3)=T pbc="F F F"
H       17.65696000     -13.66251000     -11.71154000
O       18.11717000     -13.16348000     -12.36608000
H       18.80010000     -13.80645000     -12.56380000
H       18.32409000     -13.27655000     -16.08475000
O       19.07020000     -13.10916000     -15.51398000
H       18.73386000     -13.17570000     -14.60904000
