6
Properties=species:S:1:pos:R:3 frame=T 53=T |=T Written=T by=T MDAnalysis=T XYZWriter=T (release=T 2.4.3)=T pbc="F F F"
H       -4.39063000      12.53442000      -9.04888000
O       -4.60724000      12.80431000      -8.12249000
H       -4.28776000      12.06802000      -7.58962000
H       -1.65441000      12.79048000      -7.31626000
O       -2.11898000      13.64796000      -7.44198000
H       -2.97257000      13.34222000      -7.78245000
