6
Properties=species:S:1:pos:R:3 frame=T 38=T |=T Written=T by=T MDAnalysis=T XYZWriter=T (release=T 2.4.3)=T pbc="F F F"
H       12.48931000       4.20805000      -2.04590000
O       11.68437000       3.93558000      -2.52548000
H       11.99165000       3.31604000      -3.21768000
H       12.45413000       4.91423000      -5.16878000
O       11.76583000       5.49382000      -4.80412000
H       11.58866000       5.06279000      -3.97123000
