6
Properties=species:S:1:pos:R:3 frame=T 4=T |=T Written=T by=T MDAnalysis=T XYZWriter=T (release=T 2.4.3)=T pbc="F F F"
H       -8.39761000      12.53081000     -10.48086000
O       -7.74696000      12.55486000     -11.21266000
H       -8.21123000      12.15135000     -11.95787000
H       -9.36142000      10.73159000     -10.31789000
O       -9.93629000      10.65925000      -9.53584000
H       -9.75329000      11.47534000      -9.05153000
