6
Properties=species:S:1:pos:R:3 frame=T 7=T |=T Written=T by=T MDAnalysis=T XYZWriter=T (release=T 2.4.3)=T pbc="F F F"
H       -0.58727000     -14.90500000     -17.30825000
O       -0.05974000     -14.70577000     -18.09288000
H        0.35925000     -15.52660000     -18.26839000
H        1.38223000     -14.74538000     -16.67032000
O        1.56088000     -15.40271000     -15.98157000
H        0.68480000     -15.41892000     -15.57192000
