6
Properties=species:S:1:pos:R:3 frame=T 17=T |=T Written=T by=T MDAnalysis=T XYZWriter=T (release=T 2.4.3)=T pbc="F F F"
H       14.04409000     -15.30558000      15.57667000
O       13.59665000     -15.92795000      16.16367000
H       12.70685000     -16.00192000      15.73028000
H       14.23240000     -18.01088000      18.88670000
O       13.51317000     -17.98089000      18.24942000
H       13.86910000     -17.42435000      17.56053000
