6
Properties=species:S:1:pos:R:3 frame=T 32=T |=T Written=T by=T MDAnalysis=T XYZWriter=T (release=T 2.4.3)=T pbc="F F F"
H       17.59560000       4.92824000     -18.06534000
O       17.87938000       5.81500000     -17.76375000
H       17.14747000       6.02645000     -17.14877000
H       16.13991000       5.78650000     -15.16362000
O       15.82821000       5.56109000     -16.05940000
H       16.06495000       4.63995000     -16.14108000
