6
Properties=species:S:1:pos:R:3 frame=T 38=T |=T Written=T by=T MDAnalysis=T XYZWriter=T (release=T 2.4.3)=T pbc="F F F"
H       -1.99951000      -7.91595000     -16.06185000
O       -2.81834000      -7.41780000     -16.25528000
H       -3.49146000      -8.08658000     -16.04817000
H        0.31846000      -8.21691000     -14.45656000
O       -0.27661000      -8.68114000     -15.03152000
H       -0.41857000      -9.45997000     -14.47878000
