6
Properties=species:S:1:pos:R:3 frame=T 44=T |=T Written=T by=T MDAnalysis=T XYZWriter=T (release=T 2.4.3)=T pbc="F F F"
H        5.50129000      17.51569000     -15.17313000
O        5.39952000      16.92365000     -15.93969000
H        5.61914000      17.53401000     -16.64173000
H        7.83101000      16.45027000     -17.27299000
O        7.81837000      16.10232000     -16.39796000
H        6.90017000      15.98085000     -16.23128000
