6
Properties=species:S:1:pos:R:3 frame=T 49=T |=T Written=T by=T MDAnalysis=T XYZWriter=T (release=T 2.4.3)=T pbc="F F F"
H       12.85819000     -17.23623000      -1.69438000
O       13.15513000     -17.84233000      -1.01114000
H       13.38240000     -17.24714000      -0.27553000
H       12.83010000     -17.04970000      -3.54354000
O       12.00369000     -16.69346000      -3.20126000
H       12.28796000     -15.90163000      -2.69948000
