6
Properties=species:S:1:pos:R:3 frame=T 15=T |=T Written=T by=T MDAnalysis=T XYZWriter=T (release=T 2.4.3)=T pbc="F F F"
H        7.46027000      -4.21203000      -6.95056000
O        7.44720000      -3.67550000      -7.75387000
H        8.07081000      -4.14589000      -8.30437000
H        7.62944000      -4.19749000      -4.03878000
O        7.27802000      -4.86174000      -4.62912000
H        7.71612000      -5.67312000      -4.33008000
