6
Properties=species:S:1:pos:R:3 frame=T 9=T |=T Written=T by=T MDAnalysis=T XYZWriter=T (release=T 2.4.3)=T pbc="F F F"
H       -1.71346000      15.89081000     -12.57837000
O       -1.97885000      16.54486000     -13.24830000
H       -2.45222000      16.05961000     -13.94284000
H       -0.48037000      19.15991000     -15.25126000
O       -1.39121000      18.87804000     -15.06260000
H       -1.29416000      17.99837000     -14.70520000
