6
Properties=species:S:1:pos:R:3 frame=T 35=T |=T Written=T by=T MDAnalysis=T XYZWriter=T (release=T 2.4.3)=T pbc="F F F"
H        8.23883000       5.65695000       8.07501000
O        7.78626000       6.40062000       8.47768000
H        8.18740000       7.13542000       8.01328000
H        9.55578000       7.08410000      10.74308000
O        9.64534000       6.24112000      10.27587000
H        8.94090000       6.35687000       9.64958000
