6
Properties=species:S:1:pos:R:3 frame=T 8=T |=T Written=T by=T MDAnalysis=T XYZWriter=T (release=T 2.4.3)=T pbc="F F F"
H        0.04553000     -14.02890000      11.37700000
O       -0.12404000     -14.73946000      10.75201000
H       -0.98457000     -14.50774000      10.41259000
H       -1.13923000     -12.25556000      12.08154000
O       -0.42392000     -12.67767000      12.57601000
H       -0.93004000     -13.27195000      13.12614000
