6
Properties=species:S:1:pos:R:3 frame=T 1=T |=T Written=T by=T MDAnalysis=T XYZWriter=T (release=T 2.4.3)=T pbc="F F F"
H       -9.77611000      18.23145000      18.24338000
O      -10.33965000      18.97040000      18.02178000
H      -11.24147000      18.64822000      18.15739000
H      -13.70121000      18.87752000      19.03681000
O      -13.17882000      18.22518000      18.56496000
H      -13.85397000      17.64601000      18.18668000
