6
Properties=species:S:1:pos:R:3 frame=T 28=T |=T Written=T by=T MDAnalysis=T XYZWriter=T (release=T 2.4.3)=T pbc="F F F"
H       -1.48824000      15.79722000     -15.85843000
O       -1.92281000      15.92349000     -16.72485000
H       -2.25345000      15.09263000     -16.99223000
H       -3.32311000      17.75504000     -17.54878000
O       -4.04124000      17.76435000     -18.18361000
H       -3.93401000      16.92915000     -18.60785000
