6
Properties=species:S:1:pos:R:3 frame=T 9=T |=T Written=T by=T MDAnalysis=T XYZWriter=T (release=T 2.4.3)=T pbc="F F F"
H      -17.82771000     -15.46853000      -4.59734000
O      -17.76778000     -14.81280000      -3.92331000
H      -17.31852000     -14.09953000      -4.36207000
H      -18.20005000     -12.29914000      -2.10878000
O      -18.98815000     -12.04349000      -2.62123000
H      -19.23766000     -12.89053000      -3.01222000
