6
Properties=species:S:1:pos:R:3 frame=T 12=T |=T Written=T by=T MDAnalysis=T XYZWriter=T (release=T 2.4.3)=T pbc="F F F"
H        9.65805000       4.30704000       3.80105000
O        9.43056000       5.22478000       3.59774000
H       10.09719000       5.64048000       4.17623000
H        8.30609000       5.00890000       6.42445000
O        7.84014000       4.47908000       5.75533000
H        8.18892000       4.81631000       4.90797000
