6
Properties=species:S:1:pos:R:3 frame=T 51=T |=T Written=T by=T MDAnalysis=T XYZWriter=T (release=T 2.4.3)=T pbc="F F F"
H       11.56896000      16.26083000      -8.68013000
O       10.80888000      16.75476000      -9.06069000
H       11.08737000      17.01361000      -9.92721000
H       10.62697000      19.14418000     -11.39454000
O       10.70679000      18.20465000     -11.56366000
H       10.12561000      18.03738000     -12.33614000
