6
Properties=species:S:1:pos:R:3 frame=T 22=T |=T Written=T by=T MDAnalysis=T XYZWriter=T (release=T 2.4.3)=T pbc="F F F"
H       -5.74190000     -14.50155000      -5.04961000
O       -5.41186000     -13.97875000      -4.29476000
H       -6.10978000     -14.00775000      -3.61492000
H       -6.59534000     -12.65706000      -4.70511000
O       -7.19255000     -11.93583000      -4.89154000
H       -7.88461000     -12.35609000      -5.43948000
