6
Properties=species:S:1:pos:R:3 frame=T 9=T |=T Written=T by=T MDAnalysis=T XYZWriter=T (release=T 2.4.3)=T pbc="F F F"
H        4.92679000       3.82167000     -10.94108000
O        5.73074000       4.22507000     -10.51329000
H        6.44052000       3.87336000     -11.01610000
H        6.96025000       2.89596000     -12.47555000
O        7.74866000       3.22953000     -12.03197000
H        7.94644000       4.09123000     -12.46518000
