6
Properties=species:S:1:pos:R:3 frame=T 53=T |=T Written=T by=T MDAnalysis=T XYZWriter=T (release=T 2.4.3)=T pbc="F F F"
H        1.42343000     -13.36457000      -6.82803000
O        1.69180000     -14.06692000      -7.42392000
H        2.48018000     -13.67200000      -7.79667000
H        3.93767000     -16.89043000      -6.35285000
O        3.14070000     -16.69272000      -6.85911000
H        3.06219000     -15.72632000      -6.66096000
