6
Properties=species:S:1:pos:R:3 frame=T 20=T |=T Written=T by=T MDAnalysis=T XYZWriter=T (release=T 2.4.3)=T pbc="F F F"
H       -1.25345000       5.17023000      -5.17630000
O       -1.30748000       5.62482000      -4.30312000
H       -2.21130000       5.51082000      -4.05369000
H       -1.22643000       7.83863000      -5.70222000
O       -1.75204000       8.25117000      -5.00222000
H       -1.98637000       7.43606000      -4.53832000
