6
Properties=species:S:1:pos:R:3 frame=T 3=T |=T Written=T by=T MDAnalysis=T XYZWriter=T (release=T 2.4.3)=T pbc="F F F"
H      -18.38653000     -15.93108000      -0.03320000
O      -18.97280000     -15.92553000       0.68687000
H      -18.48461000     -16.06224000       1.46630000
H      -18.18555000     -17.30901000       3.72933000
O      -18.15583000     -16.40129000       3.45324000
H      -17.46240000     -16.05396000       4.03790000
