6
Properties=species:S:1:pos:R:3 frame=T 15=T |=T Written=T by=T MDAnalysis=T XYZWriter=T (release=T 2.4.3)=T pbc="F F F"
H       19.52742000     -11.23245000     -10.43989000
O       19.05673000     -10.98090000     -11.25226000
H       18.30010000     -11.55564000     -11.28012000
H       15.25352000     -11.76764000     -10.88963000
O       15.85985000     -11.09727000     -11.25770000
H       16.21999000     -11.49632000     -12.02484000
