6
Properties=species:S:1:pos:R:3 frame=T 3=T |=T Written=T by=T MDAnalysis=T XYZWriter=T (release=T 2.4.3)=T pbc="F F F"
H       -4.98902000      10.19288000       5.04390000
O       -4.87708000       9.75462000       5.87404000
H       -5.22549000       8.84267000       5.76694000
H       -5.56361000       6.03566000       6.92927000
O       -6.04512000       6.88372000       6.76960000
H       -6.17368000       6.95564000       5.81418000
