6
Properties=species:S:1:pos:R:3 frame=T 37=T |=T Written=T by=T MDAnalysis=T XYZWriter=T (release=T 2.4.3)=T pbc="F F F"
H      -11.43651000      11.06529000      13.82073000
O      -11.18107000      11.63511000      14.57988000
H      -10.25797000      11.77873000      14.35266000
H      -11.76895000      13.07807000      13.80764000
O      -12.04856000      13.84550000      13.26641000
H      -11.53964000      13.71227000      12.45027000
