6
Properties=species:S:1:pos:R:3 frame=T 16=T |=T Written=T by=T MDAnalysis=T XYZWriter=T (release=T 2.4.3)=T pbc="F F F"
H        7.39723000     -17.31655000       3.64008000
O        8.35457000     -17.39240000       3.77255000
H        8.48364000     -16.63718000       4.33986000
H        8.55528000     -18.34040000       6.18165000
O        9.51644000     -18.17129000       6.16420000
H        9.64043000     -17.78940000       5.28668000
