6
Properties=species:S:1:pos:R:3 frame=T 26=T |=T Written=T by=T MDAnalysis=T XYZWriter=T (release=T 2.4.3)=T pbc="F F F"
H      -14.26009000     -17.77793000     -13.14884000
O      -13.70384000     -17.11555000     -13.61405000
H      -12.95160000     -17.05603000     -12.98496000
H      -11.78923000     -18.27572000     -15.55254000
O      -11.99179000     -18.67647000     -14.71938000
H      -12.72105000     -18.12350000     -14.38471000
