6
Properties=species:S:1:pos:R:3 frame=T 18=T |=T Written=T by=T MDAnalysis=T XYZWriter=T (release=T 2.4.3)=T pbc="F F F"
H        9.17158000       0.81134000      16.01314000
O        9.84702000       1.51786000      16.04260000
H       10.66224000       1.04571000      16.31607000
H       13.23649000       1.52319000      16.98319000
O       12.42461000       1.07796000      17.22925000
H       12.68134000       0.60219000      18.03881000
