6
Properties=species:S:1:pos:R:3 frame=T 48=T |=T Written=T by=T MDAnalysis=T XYZWriter=T (release=T 2.4.3)=T pbc="F F F"
H        7.46226000     -11.03774000      11.47536000
O        6.93098000     -11.47472000      12.11350000
H        6.87681000     -10.80387000      12.81955000
H        5.23262000      -8.56792000      12.72341000
O        5.81777000      -8.22795000      13.41022000
H        6.34258000      -8.99128000      13.68465000
