6
Properties=species:S:1:pos:R:3 frame=T 22=T |=T Written=T by=T MDAnalysis=T XYZWriter=T (release=T 2.4.3)=T pbc="F F F"
H       -5.03394000      14.90270000      -0.61923000
O       -4.79853000      14.42629000       0.19541000
H       -3.99765000      13.97324000       0.00007000
H       -2.53779000      15.53934000       1.49259000
O       -3.35951000      15.63476000       2.00886000
H       -4.01007000      15.33531000       1.37927000
