6
Properties=species:S:1:pos:R:3 frame=T 49=T |=T Written=T by=T MDAnalysis=T XYZWriter=T (release=T 2.4.3)=T pbc="F F F"
H        1.28405000      -8.49341000       6.11246000
O        0.97972000      -8.25067000       6.99263000
H        1.76895000      -7.83856000       7.34520000
H        0.06255000      -9.39547000       3.43296000
O       -0.03511000      -9.43962000       4.39447000
H       -0.93312000      -9.80181000       4.57087000
