6
Properties=species:S:1:pos:R:3 frame=T 22=T |=T Written=T by=T MDAnalysis=T XYZWriter=T (release=T 2.4.3)=T pbc="F F F"
H       -1.91318000      -9.52353000     -16.81654000
O       -2.25250000     -10.36758000     -16.45626000
H       -2.52548000     -10.14948000     -15.53407000
H       -3.58792000      -9.94455000     -17.34177000
O       -4.24439000      -9.72600000     -18.03024000
H       -3.72409000      -9.73269000     -18.85163000
