6
Properties=species:S:1:pos:R:3 frame=T 30=T |=T Written=T by=T MDAnalysis=T XYZWriter=T (release=T 2.4.3)=T pbc="F F F"
H       18.35964000      -6.30729000      16.48706000
O       18.49893000      -5.48721000      16.01534000
H       18.08368000      -4.83956000      16.61075000
H       17.48129000      -4.00680000      18.32761000
O       17.28641000      -3.67208000      17.45888000
H       16.40258000      -4.08204000      17.26392000
