6
Properties=species:S:1:pos:R:3 frame=T 12=T |=T Written=T by=T MDAnalysis=T XYZWriter=T (release=T 2.4.3)=T pbc="F F F"
H       -5.99073000       0.20197000     -17.85102000
O       -6.47367000      -0.62230000     -17.66121000
H       -6.77905000      -0.43635000     -16.76441000
H       -7.72361000       3.23559000     -18.61902000
O       -7.97476000       2.33314000     -18.42244000
H       -7.40927000       2.02685000     -17.72713000
