6
Properties=species:S:1:pos:R:3 frame=T 16=T |=T Written=T by=T MDAnalysis=T XYZWriter=T (release=T 2.4.3)=T pbc="F F F"
H       16.61863000      -7.04003000      -2.36007000
O       16.27231000      -7.92329000      -2.14858000
H       16.80228000      -8.50075000      -2.68389000
H       17.61789000      -6.00522000      -3.86993000
O       17.17773000      -5.62883000      -3.07418000
H       17.89886000      -5.52846000      -2.45553000
