6
Properties=species:S:1:pos:R:3 frame=T 26=T |=T Written=T by=T MDAnalysis=T XYZWriter=T (release=T 2.4.3)=T pbc="F F F"
H       14.77891000     -13.07052000     -14.90132000
O       15.62832000     -12.87151000     -14.51520000
H       16.17256000     -12.77612000     -15.29989000
H       14.51037000     -11.49610000     -14.62489000
O       13.74388000     -10.91258000     -14.72249000
H       14.07520000     -10.23316000     -15.30665000
