6
Properties=species:S:1:pos:R:3 frame=T 33=T |=T Written=T by=T MDAnalysis=T XYZWriter=T (release=T 2.4.3)=T pbc="F F F"
H       -7.21866000      15.44889000       6.03270000
O       -7.94598000      14.79679000       5.96725000
H       -7.65078000      14.22163000       5.24809000
H       -4.86861000      15.85783000       5.85658000
O       -5.74692000      16.19861000       5.76710000
H       -5.88433000      16.07857000       4.81465000
