6
Properties=species:S:1:pos:R:3 frame=T 47=T |=T Written=T by=T MDAnalysis=T XYZWriter=T (release=T 2.4.3)=T pbc="F F F"
H        1.34390000      14.18959000      -2.96201000
O        1.85480000      13.48499000      -3.36314000
H        1.34521000      12.68977000      -3.18011000
H        1.20599000      13.73981000      -5.05226000
O        0.66477000      14.06900000      -5.76710000
H        0.16135000      14.78079000      -5.31448000
