6
Properties=species:S:1:pos:R:3 frame=T 52=T |=T Written=T by=T MDAnalysis=T XYZWriter=T (release=T 2.4.3)=T pbc="F F F"
H       16.80614000       8.93643000     -15.59562000
O       16.72380000       9.44079000     -16.41912000
H       16.50455000       8.77680000     -17.06675000
H       16.90196000       6.33973000     -16.96565000
O       16.10814000       6.13454000     -16.44279000
H       15.42105000       6.15720000     -17.13605000
