6
Properties=species:S:1:pos:R:3 frame=T 24=T |=T Written=T by=T MDAnalysis=T XYZWriter=T (release=T 2.4.3)=T pbc="F F F"
H       -9.28724000      -8.90945000       8.79108000
O       -9.91581000      -8.96185000       8.03873000
H      -10.26075000      -8.04932000       7.89735000
H       -7.82344000      -8.75706000      10.82085000
O       -7.76592000      -9.31830000      10.06447000
H       -7.44278000     -10.13369000      10.49030000
