6
Properties=species:S:1:pos:R:3 frame=T 5=T |=T Written=T by=T MDAnalysis=T XYZWriter=T (release=T 2.4.3)=T pbc="F F F"
H        2.87110000      14.27183000       8.12247000
O        2.42091000      14.91273000       7.51950000
H        1.57622000      14.46576000       7.31765000
H        4.25373000      14.94304000      10.58353000
O        4.20392000      14.73605000       9.65270000
H        4.97016000      14.20008000       9.46885000
