6
Properties=species:S:1:pos:R:3 frame=T 33=T |=T Written=T by=T MDAnalysis=T XYZWriter=T (release=T 2.4.3)=T pbc="F F F"
H        8.88288000     -10.64424000     -11.08859000
O        9.77932000     -10.72059000     -11.46316000
H        9.71885000     -10.30693000     -12.33942000
H        6.12406000     -11.19827000     -11.34681000
O        6.94453000     -11.64064000     -11.08765000
H        6.97040000     -12.50761000     -11.58863000
