6
Properties=species:S:1:pos:R:3 frame=T 36=T |=T Written=T by=T MDAnalysis=T XYZWriter=T (release=T 2.4.3)=T pbc="F F F"
H       -6.23880000       8.42504000      -1.38204000
O       -5.89399000       8.00078000      -0.61097000
H       -5.15727000       8.54159000      -0.31416000
H       -3.79365000       6.31659000      -1.39138000
O       -4.56498000       6.13286000      -1.95108000
H       -5.25351000       6.76250000      -1.66622000
