6
Properties=species:S:1:pos:R:3 frame=T 46=T |=T Written=T by=T MDAnalysis=T XYZWriter=T (release=T 2.4.3)=T pbc="F F F"
H       16.29720000      -1.11114000       4.68649000
O       15.70693000      -1.23301000       5.47487000
H       15.16826000      -0.45270000       5.44827000
H       14.28447000      -1.87606000       4.56671000
O       13.67940000      -2.15451000       3.89832000
H       13.14567000      -1.36334000       3.73072000
