6
Properties=species:S:1:pos:R:3 frame=T 41=T |=T Written=T by=T MDAnalysis=T XYZWriter=T (release=T 2.4.3)=T pbc="F F F"
H       -7.84241000     -14.29269000       3.42841000
O       -8.62955000     -14.52857000       3.93143000
H       -8.89587000     -15.35454000       3.51893000
H       -6.67523000     -13.17606000       1.23825000
O       -6.35498000     -13.99956000       1.62048000
H       -6.70860000     -14.72547000       1.08041000
