6
Properties=species:S:1:pos:R:3 frame=T 1=T |=T Written=T by=T MDAnalysis=T XYZWriter=T (release=T 2.4.3)=T pbc="F F F"
H       11.40432000      -6.38291000       5.79375000
O       11.09941000      -7.30357000       5.77345000
H       10.94311000      -7.53885000       6.70743000
H       11.05076000      -8.51712000       4.22366000
O       11.49496000      -9.04979000       3.56384000
H       10.77944000      -9.32357000       2.97494000
