6
Properties=species:S:1:pos:R:3 frame=T 3=T |=T Written=T by=T MDAnalysis=T XYZWriter=T (release=T 2.4.3)=T pbc="F F F"
H       15.27997000     -11.14210000      -9.51243000
O       15.86202000     -10.53616000      -9.97833000
H       16.72944000     -10.58038000      -9.52814000
H       18.73890000     -10.01704000      -7.70602000
O       18.16616000      -9.73803000      -8.42586000
H       18.43341000      -8.81337000      -8.56399000
