6
Properties=species:S:1:pos:R:3 frame=T 52=T |=T Written=T by=T MDAnalysis=T XYZWriter=T (release=T 2.4.3)=T pbc="F F F"
H      -14.74747000      -1.19624000       2.45389000
O      -14.76240000      -0.26253000       2.24496000
H      -13.92248000       0.10425000       2.61533000
H      -11.83413000       1.12557000       2.14331000
O      -12.29199000       1.28984000       2.99759000
H      -11.56736000       1.65180000       3.52174000
