6
Properties=species:S:1:pos:R:3 frame=T 25=T |=T Written=T by=T MDAnalysis=T XYZWriter=T (release=T 2.4.3)=T pbc="F F F"
H      -18.11518000     -17.27122000     -15.26074000
O      -18.12246000     -17.51256000     -14.33913000
H      -17.37719000     -18.09457000     -14.23830000
H      -15.96832000     -19.13383000     -16.14573000
O      -15.40236000     -18.68676000     -15.55423000
H      -15.14841000     -17.87608000     -16.02319000
