6
Properties=species:S:1:pos:R:3 frame=T 49=T |=T Written=T by=T MDAnalysis=T XYZWriter=T (release=T 2.4.3)=T pbc="F F F"
H       -8.04019000       0.75025000     -15.37575000
O       -7.52967000       0.10707000     -15.88063000
H       -7.69808000      -0.73642000     -15.45963000
H       -8.11200000       2.24510000     -14.11524000
O       -8.92787000       2.10119000     -14.61886000
H       -9.40767000       1.34299000     -14.23399000
