6
Properties=species:S:1:pos:R:3 frame=T 18=T |=T Written=T by=T MDAnalysis=T XYZWriter=T (release=T 2.4.3)=T pbc="F F F"
H        3.00420000     -16.44723000      -6.42184000
O        3.86669000     -16.52519000      -6.82545000
H        3.74739000     -17.11598000      -7.57165000
H        2.94285000     -15.45142000      -3.85134000
O        2.63556000     -16.22683000      -4.30490000
H        3.00275000     -16.89335000      -3.70935000
