6
Properties=species:S:1:pos:R:3 frame=T 38=T |=T Written=T by=T MDAnalysis=T XYZWriter=T (release=T 2.4.3)=T pbc="F F F"
H      -18.38159000       5.34550000      -9.39473000
O      -17.87341000       5.20674000     -10.20368000
H      -17.04577000       5.61843000      -9.93815000
H      -15.96376000       7.98468000     -10.31735000
O      -15.66724000       7.32249000      -9.68691000
H      -14.72530000       7.18257000      -9.91314000
