6
Properties=species:S:1:pos:R:3 frame=T 26=T |=T Written=T by=T MDAnalysis=T XYZWriter=T (release=T 2.4.3)=T pbc="F F F"
H       -0.71732000      -0.02224000      -4.78517000
O       -0.92383000      -0.93579000      -5.06108000
H       -0.53175000      -1.00098000      -5.93949000
H       -0.14870000       2.34886000      -2.95739000
O       -0.04421000       2.55054000      -3.90877000
H       -0.92171000       2.39034000      -4.29283000
