6
Properties=species:S:1:pos:R:3 frame=T 51=T |=T Written=T by=T MDAnalysis=T XYZWriter=T (release=T 2.4.3)=T pbc="F F F"
H        3.50019000      -6.00416000       9.44297000
O        3.78982000      -6.63065000       8.75888000
H        3.88057000      -7.48039000       9.25849000
H        2.78022000      -3.89251000      11.09349000
O        3.44592000      -4.32610000      10.52016000
H        3.85716000      -3.56617000      10.10919000
