6
Properties=species:S:1:pos:R:3 frame=T 9=T |=T Written=T by=T MDAnalysis=T XYZWriter=T (release=T 2.4.3)=T pbc="F F F"
H      -10.38423000      -7.90223000       4.76906000
O      -10.73456000      -8.76768000       5.02132000
H      -11.21013000      -9.06497000       4.24967000
H       -9.41394000      -6.72081000       3.83493000
O       -9.90601000      -6.34924000       4.59361000
H      -10.57596000      -5.83330000       4.18351000
