6
Properties=species:S:1:pos:R:3 frame=T 18=T |=T Written=T by=T MDAnalysis=T XYZWriter=T (release=T 2.4.3)=T pbc="F F F"
H        3.63873000       2.17152000      -8.28504000
O        3.67016000       1.36154000      -7.73767000
H        3.28900000       0.74944000      -8.32600000
H        2.39534000       0.13538000     -10.29942000
O        1.85063000       0.90461000     -10.54811000
H        2.37179000       1.45992000     -11.11763000
