6
Properties=species:S:1:pos:R:3 frame=T 12=T |=T Written=T by=T MDAnalysis=T XYZWriter=T (release=T 2.4.3)=T pbc="F F F"
H        9.35475000       5.70655000       1.53955000
O        9.54318000       5.82247000       0.59285000
H        9.90915000       5.00689000       0.23430000
H        9.65805000       4.30704000       3.80105000
O        9.43056000       5.22478000       3.59774000
H       10.09719000       5.64048000       4.17623000
