6
Properties=species:S:1:pos:R:3 frame=T 3=T |=T Written=T by=T MDAnalysis=T XYZWriter=T (release=T 2.4.3)=T pbc="F F F"
H      -17.58460000     -13.60575000     -13.70887000
O      -17.57216000     -12.78127000     -13.16327000
H      -18.39953000     -12.84351000     -12.67818000
H      -18.40840000     -13.40230000      -9.98004000
O      -17.92239000     -13.78083000      -9.25500000
H      -17.47624000     -14.51887000      -9.67679000
