6
Properties=species:S:1:pos:R:3 frame=T 51=T |=T Written=T by=T MDAnalysis=T XYZWriter=T (release=T 2.4.3)=T pbc="F F F"
H       11.00699000       6.87529000       6.13989000
O       10.15791000       7.00691000       5.72236000
H        9.52482000       6.58372000       6.33349000
H        9.40146000       9.22010000       7.87613000
O        9.49388000       9.25245000       6.92038000
H        9.82483000       8.37043000       6.65008000
