6
Properties=species:S:1:pos:R:3 frame=T 35=T |=T Written=T by=T MDAnalysis=T XYZWriter=T (release=T 2.4.3)=T pbc="F F F"
H       -6.21693000     -12.21934000       7.97477000
O       -7.06696000     -12.45848000       7.61852000
H       -7.58467000     -12.86633000       8.33251000
H       -5.49665000     -10.65106000       8.88650000
O       -4.82865000     -11.19699000       8.48976000
H       -4.64515000     -11.90920000       9.12605000
