6
Properties=species:S:1:pos:R:3 frame=T 13=T |=T Written=T by=T MDAnalysis=T XYZWriter=T (release=T 2.4.3)=T pbc="F F F"
H       -6.78371000      -9.48617000       5.56766000
O       -7.52003000      -9.42556000       6.18179000
H       -7.06194000      -9.48715000       7.03181000
H       -5.67974000      -7.71872000       7.94006000
O       -5.70943000      -8.67930000       8.10877000
H       -4.93409000      -9.03814000       7.63971000
