6
Properties=species:S:1:pos:R:3 frame=T 42=T |=T Written=T by=T MDAnalysis=T XYZWriter=T (release=T 2.4.3)=T pbc="F F F"
H       10.92977000      15.66483000     -18.40518000
O       11.30062000      16.42183000     -17.94163000
H       11.12619000      17.15549000     -18.52534000
H        8.88752000      18.28111000     -15.69829000
O        9.08266000      18.11602000     -16.63607000
H        9.96796000      17.72673000     -16.51937000
