6
Properties=species:S:1:pos:R:3 frame=T 7=T |=T Written=T by=T MDAnalysis=T XYZWriter=T (release=T 2.4.3)=T pbc="F F F"
H       13.72271000       3.72321000     -18.10600000
O       13.61098000       4.38254000     -17.40498000
H       13.36893000       5.21571000     -17.82592000
H       11.70705000       4.74420000     -17.10056000
O       10.87272000       4.27289000     -16.90298000
H       11.20309000       3.44549000     -16.53698000
