6
Properties=species:S:1:pos:R:3 frame=T 34=T |=T Written=T by=T MDAnalysis=T XYZWriter=T (release=T 2.4.3)=T pbc="F F F"
H        3.23965000       2.43644000     -16.67171000
O        2.70266000       2.90445000     -16.02155000
H        2.57029000       3.80880000     -16.37005000
H        2.86730000       2.85108000     -18.48797000
O        3.69462000       2.40843000     -18.48524000
H        3.57347000       1.74910000     -19.13513000
