6
Properties=species:S:1:pos:R:3 frame=T 51=T |=T Written=T by=T MDAnalysis=T XYZWriter=T (release=T 2.4.3)=T pbc="F F F"
H       -0.61735000      15.42686000     -19.50337000
O       -0.78598000      14.58558000     -19.04628000
H       -0.72041000      14.72969000     -18.08916000
H        0.97483000      15.45563000     -17.07925000
O        0.14247000      15.67927000     -16.72733000
H        0.06266000      16.65270000     -16.71148000
