6
Properties=species:S:1:pos:R:3 frame=T 22=T |=T Written=T by=T MDAnalysis=T XYZWriter=T (release=T 2.4.3)=T pbc="F F F"
H        6.60451000      16.36563000      10.78940000
O        7.32400000      16.99688000      10.68641000
H        7.32845000      17.42590000      11.58035000
H        6.55327000      18.59601000      10.12726000
O        5.87281000      19.09642000       9.65656000
H        5.03759000      18.68343000       9.89053000
