6
Properties=species:S:1:pos:R:3 frame=T 40=T |=T Written=T by=T MDAnalysis=T XYZWriter=T (release=T 2.4.3)=T pbc="F F F"
H       -6.32838000     -11.95825000      -8.85963000
O       -5.54465000     -11.93598000      -8.28343000
H       -5.34546000     -10.99508000      -8.22734000
H       -8.28845000     -11.23729000      -6.76857000
O       -7.50605000     -11.62820000      -6.35063000
H       -6.93155000     -11.87602000      -7.11857000
