6
Properties=species:S:1:pos:R:3 frame=T 15=T |=T Written=T by=T MDAnalysis=T XYZWriter=T (release=T 2.4.3)=T pbc="F F F"
H       17.36646000       1.14082000      17.08481000
O       17.72175000       0.33561000      17.46758000
H       18.25748000       0.05796000      16.73209000
H       16.86812000      -1.24548000      16.96152000
O       16.53941000      -1.83717000      16.25828000
H       17.35625000      -2.11740000      15.83026000
