6
Properties=species:S:1:pos:R:3 frame=T 25=T |=T Written=T by=T MDAnalysis=T XYZWriter=T (release=T 2.4.3)=T pbc="F F F"
H        1.69718000      10.21971000       6.04958000
O        1.80820000      10.79575000       6.81753000
H        1.12071000      11.51448000       6.75389000
H        4.35432000      10.58147000       8.99768000
O        4.43060000      10.55153000       8.04081000
H        3.51660000      10.40269000       7.75913000
