6
Properties=species:S:1:pos:R:3 frame=T 53=T |=T Written=T by=T MDAnalysis=T XYZWriter=T (release=T 2.4.3)=T pbc="F F F"
H       17.48986000     -19.05495000       3.87084000
O       16.58063000     -18.78073000       3.63975000
H       16.21669000     -18.33159000       4.41560000
H       16.92187000     -15.25077000       2.52484000
O       17.12574000     -15.73252000       3.34366000
H       17.59872000     -16.53942000       3.05823000
