6
Properties=species:S:1:pos:R:3 frame=T 22=T |=T Written=T by=T MDAnalysis=T XYZWriter=T (release=T 2.4.3)=T pbc="F F F"
H        9.42690000      18.20869000      12.35684000
O       10.31797000      18.56162000      12.50698000
H       10.84099000      17.78699000      12.43572000
H       10.79512000      18.98456000      10.91218000
O       11.14935000      19.08280000       9.98960000
H       10.55658000      18.55359000       9.46820000
