6
Properties=species:S:1:pos:R:3 frame=T 51=T |=T Written=T by=T MDAnalysis=T XYZWriter=T (release=T 2.4.3)=T pbc="F F F"
H       -6.30918000      13.99848000      -9.57098000
O       -6.35295000      14.87800000      -9.22162000
H       -7.06012000      15.34455000      -9.73137000
H       -7.54185000      11.79999000     -10.35658000
O       -6.65684000      12.20679000     -10.45407000
H       -6.21834000      11.55837000     -10.99620000
