6
Properties=species:S:1:pos:R:3 frame=T 46=T |=T Written=T by=T MDAnalysis=T XYZWriter=T (release=T 2.4.3)=T pbc="F F F"
H       -6.88756000      16.57025000      10.82513000
O       -6.89318000      16.01284000      11.60417000
H       -7.13621000      15.12920000      11.28292000
H       -6.67404000      15.72674000      14.20455000
O       -6.44209000      16.42670000      14.84974000
H       -6.40412000      17.21322000      14.28154000
