6
Properties=species:S:1:pos:R:3 frame=T 52=T |=T Written=T by=T MDAnalysis=T XYZWriter=T (release=T 2.4.3)=T pbc="F F F"
H        5.99928000      -9.42148000     -15.84241000
O        6.41139000      -9.93858000     -15.11000000
H        5.64839000     -10.21087000     -14.54162000
H        8.21560000      -9.66243000     -14.30630000
O        8.56274000     -10.12725000     -13.52014000
H        9.41839000      -9.68805000     -13.37834000
