6
Properties=species:S:1:pos:R:3 frame=T 6=T |=T Written=T by=T MDAnalysis=T XYZWriter=T (release=T 2.4.3)=T pbc="F F F"
H       -0.72567000      -2.98329000     -18.86330000
O       -1.08550000      -3.29513000     -18.04411000
H       -1.05155000      -2.49484000     -17.49669000
H       -1.86994000      -1.03589000     -15.59099000
O       -1.24249000      -0.80174000     -16.28787000
H       -0.46060000      -0.44469000     -15.82170000
