6
Properties=species:S:1:pos:R:3 frame=T 30=T |=T Written=T by=T MDAnalysis=T XYZWriter=T (release=T 2.4.3)=T pbc="F F F"
H       18.29239000     -15.77742000     -14.07686000
O       17.61931000     -16.01446000     -13.43122000
H       18.09912000     -16.62592000     -12.89243000
H       16.48528000     -16.97658000     -14.05354000
O       15.76674000     -17.60170000     -14.18669000
H       15.78332000     -18.10574000     -13.31221000
