6
Properties=species:S:1:pos:R:3 frame=T 48=T |=T Written=T by=T MDAnalysis=T XYZWriter=T (release=T 2.4.3)=T pbc="F F F"
H       -1.36030000      15.27319000     -12.75690000
O       -1.71300000      15.66963000     -11.98177000
H       -2.68031000      15.59161000     -12.04193000
H       -0.03861000      14.30437000     -13.04365000
O       -0.26653000      14.52322000     -13.96838000
H       -0.93079000      13.86155000     -14.30216000
