6
Properties=species:S:1:pos:R:3 frame=T 23=T |=T Written=T by=T MDAnalysis=T XYZWriter=T (release=T 2.4.3)=T pbc="F F F"
H        3.23569000      -9.28573000     -12.89610000
O        4.00109000      -8.86073000     -12.53825000
H        4.07327000      -9.23348000     -11.66193000
H        4.13569000     -10.50807000     -10.43475000
O        4.59967000      -9.70926000     -10.13772000
H        5.54405000      -9.96937000     -10.24098000
