6
Properties=species:S:1:pos:R:3 frame=T 13=T |=T Written=T by=T MDAnalysis=T XYZWriter=T (release=T 2.4.3)=T pbc="F F F"
H       16.37809000       7.33348000     -12.36992000
O       16.83732000       8.17128000     -12.33051000
H       16.28815000       8.75680000     -12.85049000
H       14.57297000       7.62327000     -12.14346000
O       14.03675000       7.96955000     -11.41171000
H       14.44662000       8.80009000     -11.19776000
