6
Properties=species:S:1:pos:R:3 frame=T 42=T |=T Written=T by=T MDAnalysis=T XYZWriter=T (release=T 2.4.3)=T pbc="F F F"
H       -5.47251000       6.39057000     -13.58641000
O       -6.27261000       5.92522000     -13.74780000
H       -6.31807000       5.40209000     -12.89762000
H       -3.40417000       6.28400000     -12.05906000
O       -3.86188000       6.98813000     -12.55236000
H       -4.57569000       7.35312000     -11.98730000
