6
Properties=species:S:1:pos:R:3 frame=T 30=T |=T Written=T by=T MDAnalysis=T XYZWriter=T (release=T 2.4.3)=T pbc="F F F"
H      -10.32693000      16.08143000      -5.75338000
O      -10.69497000      16.90908000      -5.43884000
H       -9.90664000      17.32540000      -5.03801000
H       -7.90649000      16.38298000      -3.96477000
O       -8.48999000      17.00266000      -3.54956000
H       -8.43823000      17.76898000      -4.12730000
