6
Properties=species:S:1:pos:R:3 frame=T 42=T |=T Written=T by=T MDAnalysis=T XYZWriter=T (release=T 2.4.3)=T pbc="F F F"
H       -6.51578000      -4.88029000     -15.18586000
O       -5.59441000      -5.15218000     -15.12855000
H       -5.63483000      -5.80314000     -14.42334000
H       -3.94206000      -3.97202000     -14.63394000
O       -2.97635000      -4.09579000     -14.64826000
H       -2.65164000      -3.45738000     -13.99235000
