6
Properties=species:S:1:pos:R:3 frame=T 42=T |=T Written=T by=T MDAnalysis=T XYZWriter=T (release=T 2.4.3)=T pbc="F F F"
H      -12.88002000      10.54918000      -2.08605000
O      -11.96677000      10.48396000      -1.79617000
H      -11.55339000      10.03476000      -2.54130000
H      -11.94283000      12.38255000      -0.94950000
O      -11.40661000      13.06167000      -0.54608000
H      -12.00039000      13.45928000       0.12210000
