6
Properties=species:S:1:pos:R:3 frame=T 4=T |=T Written=T by=T MDAnalysis=T XYZWriter=T (release=T 2.4.3)=T pbc="F F F"
H        3.15327000       9.00717000     -10.49807000
O        3.47257000       8.10057000     -10.29419000
H        4.00562000       8.18262000      -9.48961000
H        4.61357000       7.20835000      -7.31981000
O        4.28250000       8.04532000      -7.02335000
H        4.58096000       8.06769000      -6.08406000
