6
Properties=species:S:1:pos:R:3 frame=T 14=T |=T Written=T by=T MDAnalysis=T XYZWriter=T (release=T 2.4.3)=T pbc="F F F"
H        1.23982000       7.39550000      -2.85918000
O        1.69307000       8.18518000      -2.52772000
H        1.90308000       8.64624000      -3.31963000
H        2.22226000       8.85376000      -5.22788000
O        1.69821000       9.61923000      -4.93475000
H        0.77542000       9.42536000      -5.22705000
