6
Properties=species:S:1:pos:R:3 frame=T 43=T |=T Written=T by=T MDAnalysis=T XYZWriter=T (release=T 2.4.3)=T pbc="F F F"
H        3.94145000     -18.03354000      -6.46033000
O        4.84783000     -17.67237000      -6.39471000
H        5.22191000     -18.12600000      -5.64538000
H        1.87763000     -18.14215000      -6.33785000
O        1.96324000     -18.44413000      -7.22878000
H        1.18688000     -18.07226000      -7.64375000
