6
Properties=species:S:1:pos:R:3 frame=T 9=T |=T Written=T by=T MDAnalysis=T XYZWriter=T (release=T 2.4.3)=T pbc="F F F"
H       -0.90144000       1.42099000      -4.93417000
O       -1.02060000       2.38731000      -4.86156000
H       -0.59418000       2.60787000      -4.03952000
H       -3.19525000       1.26111000      -2.98489000
O       -3.03142000       2.22619000      -2.79885000
H       -2.45222000       2.46857000      -3.52966000
