6
Properties=species:S:1:pos:R:3 frame=T 40=T |=T Written=T by=T MDAnalysis=T XYZWriter=T (release=T 2.4.3)=T pbc="F F F"
H       -0.95090000       6.04336000     -17.65641000
O       -1.36494000       5.50488000     -16.96069000
H       -1.55661000       4.70661000     -17.44165000
H        0.11288000       8.85095000     -18.22557000
O        0.29601000       8.10275000     -17.59605000
H       -0.56841000       7.94170000     -17.17379000
