6
Properties=species:S:1:pos:R:3 frame=T 47=T |=T Written=T by=T MDAnalysis=T XYZWriter=T (release=T 2.4.3)=T pbc="F F F"
H       18.03569000       4.77277000       0.00754000
O       17.15735000       5.13661000      -0.19801000
H       16.66476000       4.36869000      -0.48919000
H       18.98485000       6.02585000      -2.42353000
O       18.05480000       6.16672000      -2.37401000
H       17.78569000       6.04513000      -1.43857000
