6
Properties=species:S:1:pos:R:3 frame=T 6=T |=T Written=T by=T MDAnalysis=T XYZWriter=T (release=T 2.4.3)=T pbc="F F F"
H       -4.23272000       6.13625000      10.55339000
O       -4.53007000       5.24944000      10.29951000
H       -3.86988000       4.94503000       9.69283000
H       -2.78591000       5.07607000       7.73878000
O       -2.78164000       4.46278000       8.48323000
H       -2.10766000       4.76192000       9.09589000
