6
Properties=species:S:1:pos:R:3 frame=T 35=T |=T Written=T by=T MDAnalysis=T XYZWriter=T (release=T 2.4.3)=T pbc="F F F"
H        5.53407000     -17.41572000      14.23443000
O        5.25851000     -16.67405000      14.79575000
H        5.83508000     -16.81969000      15.56153000
H        7.22113000     -18.09628000      16.00229000
O        7.01897000     -17.37811000      16.62861000
H        6.97860000     -17.89300000      17.44330000
