6
Properties=species:S:1:pos:R:3 frame=T 36=T |=T Written=T by=T MDAnalysis=T XYZWriter=T (release=T 2.4.3)=T pbc="F F F"
H      -12.48526000       9.88003000       5.64863000
O      -11.63935000       9.45724000       5.78327000
H      -11.84752000       8.52964000       5.99649000
H      -10.65272000       5.90601000       5.89642000
O      -11.11986000       6.64118000       5.50836000
H      -10.72199000       6.78537000       4.65445000
