6
Properties=species:S:1:pos:R:3 frame=T 35=T |=T Written=T by=T MDAnalysis=T XYZWriter=T (release=T 2.4.3)=T pbc="F F F"
H        5.95311000     -15.61295000      18.69435000
O        5.35716000     -15.10845000      18.08555000
H        5.90542000     -14.33492000      17.91556000
H        8.34538000     -13.83268000      18.56081000
O        7.99634000     -13.19948000      17.94514000
H        7.63706000     -12.46509000      18.48395000
