6
Properties=species:S:1:pos:R:3 frame=T 52=T |=T Written=T by=T MDAnalysis=T XYZWriter=T (release=T 2.4.3)=T pbc="F F F"
H        0.05394000       0.16760000       5.85906000
O        0.97161000       0.46607000       5.99054000
H        1.33695000       0.54028000       5.09516000
H       -0.34593000       2.94314000       7.06311000
O        0.11584000       2.93377000       6.22645000
H        0.36911000       1.99943000       6.16553000
