6
Properties=species:S:1:pos:R:3 frame=T 16=T |=T Written=T by=T MDAnalysis=T XYZWriter=T (release=T 2.4.3)=T pbc="F F F"
H        9.22887000      16.92075000      -2.14819000
O        9.72569000      17.74149000      -2.30760000
H        9.11585000      18.19930000      -2.91536000
H        9.29205000      18.14257000      -0.74569000
O        9.02721000      18.58549000       0.09503000
H        8.13828000      18.27062000       0.28414000
