6
Properties=species:S:1:pos:R:3 frame=T 51=T |=T Written=T by=T MDAnalysis=T XYZWriter=T (release=T 2.4.3)=T pbc="F F F"
H        0.89592000     -17.51242000       8.93912000
O        0.68088000     -17.01005000       9.72989000
H        1.09769000     -17.52938000      10.41360000
H       -0.37812000     -19.20721000      10.65668000
O       -1.18657000     -18.70768000      10.74861000
H       -0.91558000     -17.87365000      10.31891000
