6
Properties=species:S:1:pos:R:3 frame=T 7=T |=T Written=T by=T MDAnalysis=T XYZWriter=T (release=T 2.4.3)=T pbc="F F F"
H      -16.20152000      14.42208000     -10.02468000
O      -15.53874000      15.06847000     -10.31345000
H      -16.01917000      15.90315000     -10.45786000
H      -13.45241000      13.34749000     -12.39141000
O      -13.32090000      14.25776000     -12.06086000
H      -14.07508000      14.34796000     -11.48403000
