6
Properties=species:S:1:pos:R:3 frame=T 26=T |=T Written=T by=T MDAnalysis=T XYZWriter=T (release=T 2.4.3)=T pbc="F F F"
H        9.07566000      -6.57198000      14.96284000
O        8.23462000      -6.95103000      14.67585000
H        8.22705000      -7.75756000      15.23941000
H        9.61573000      -6.79484000      12.86147000
O        9.77409000      -6.19046000      12.14172000
H       10.06148000      -6.79366000      11.44812000
