6
Properties=species:S:1:pos:R:3 frame=T 22=T |=T Written=T by=T MDAnalysis=T XYZWriter=T (release=T 2.4.3)=T pbc="F F F"
H        6.00458000      -4.05382000       3.16956000
O        5.53028000      -4.32945000       2.39993000
H        4.62617000      -4.27629000       2.68324000
H        6.10623000      -2.83970000       5.71063000
O        5.61565000      -3.51847000       5.23581000
H        5.36688000      -4.07496000       5.97941000
