6
Properties=species:S:1:pos:R:3 frame=T 14=T |=T Written=T by=T MDAnalysis=T XYZWriter=T (release=T 2.4.3)=T pbc="F F F"
H       -6.45010000      17.95633000      -6.59837000
O       -6.92527000      18.47120000      -7.28253000
H       -7.86033000      18.50143000      -6.96835000
H       -5.67681000      18.74269000      -4.97316000
O       -5.54694000      17.81879000      -4.75158000
H       -4.87796000      17.57182000      -5.40549000
