6
Properties=species:S:1:pos:R:3 frame=T 33=T |=T Written=T by=T MDAnalysis=T XYZWriter=T (release=T 2.4.3)=T pbc="F F F"
H       12.91716000      -1.99698000      -7.28320000
O       12.64990000      -1.23305000      -6.76327000
H       13.32221000      -0.55120000      -7.00142000
H       10.80283000      -0.58327000      -6.54812000
O       10.06702000      -0.09839000      -6.11219000
H        9.31454000      -0.49642000      -6.53886000
