6
Properties=species:S:1:pos:R:3 frame=T 48=T |=T Written=T by=T MDAnalysis=T XYZWriter=T (release=T 2.4.3)=T pbc="F F F"
H       -4.70097000      -9.89272000     -11.78469000
O       -5.67701000     -10.06150000     -11.62858000
H       -6.00398000     -10.05776000     -12.52955000
H       -7.18086000      -8.88655000     -10.83685000
O       -7.78196000      -8.46885000     -10.18460000
H       -7.72467000      -7.53069000     -10.37837000
