6
Properties=species:S:1:pos:R:3 frame=T 37=T |=T Written=T by=T MDAnalysis=T XYZWriter=T (release=T 2.4.3)=T pbc="F F F"
H      -15.31228000     -15.34851000      14.67464000
O      -16.12042000     -14.82718000      14.56723000
H      -16.62250000     -15.05292000      15.39114000
H      -16.78058000     -16.54293000      16.17318000
O      -16.80737000     -15.93297000      16.97077000
H      -16.90561000     -16.57674000      17.68578000
