6
Properties=species:S:1:pos:R:3 frame=T 3=T |=T Written=T by=T MDAnalysis=T XYZWriter=T (release=T 2.4.3)=T pbc="F F F"
H       16.46153000      -7.31896000     -19.27191000
O       16.70036000      -6.61709000     -18.65016000
H       17.34924000      -7.02663000     -18.07292000
H       19.01511000      -8.91580000     -18.86026000
O       18.24519000      -8.89543000     -18.27357000
H       18.57246000      -8.49829000     -17.46764000
