6
Properties=species:S:1:pos:R:3 frame=T 29=T |=T Written=T by=T MDAnalysis=T XYZWriter=T (release=T 2.4.3)=T pbc="F F F"
H       15.65486000      -9.72015000      -8.21341000
O       15.72064000      -9.58849000      -7.25786000
H       14.94696000      -8.96044000      -7.06242000
H       17.03310000     -12.02227000      -5.33701000
O       16.17613000     -11.84790000      -5.71685000
H       16.16344000     -10.92789000      -5.84350000
