6
Properties=species:S:1:pos:R:3 frame=T 33=T |=T Written=T by=T MDAnalysis=T XYZWriter=T (release=T 2.4.3)=T pbc="F F F"
H        4.51328000      -0.25279000       2.05905000
O        3.73714000      -0.80942000       1.83125000
H        4.04860000      -1.68679000       2.09919000
H        5.19748000       1.70547000       3.71463000
O        5.01393000       1.42099000       2.80348000
H        5.31450000       2.22366000       2.32409000
