6
Properties=species:S:1:pos:R:3 frame=T 50=T |=T Written=T by=T MDAnalysis=T XYZWriter=T (release=T 2.4.3)=T pbc="F F F"
H      -13.96154000       6.43870000       5.40569000
O      -14.84523000       6.44351000       5.83094000
H      -15.37460000       5.91508000       5.18403000
H      -13.66458000       4.97792000       2.79374000
O      -14.45270000       4.86163000       3.34676000
H      -14.15647000       4.12276000       3.90627000
