6
Properties=species:S:1:pos:R:3 frame=T 51=T |=T Written=T by=T MDAnalysis=T XYZWriter=T (release=T 2.4.3)=T pbc="F F F"
H       -2.66337000     -15.70710000       7.70043000
O       -2.44615000     -15.87673000       6.76146000
H       -3.20524000     -16.34582000       6.39424000
H       -4.50957000     -17.27538000       4.40454000
O       -4.29238000     -17.48027000       5.34066000
H       -4.54166000     -18.41284000       5.42897000
