6
Properties=species:S:1:pos:R:3 frame=T 29=T |=T Written=T by=T MDAnalysis=T XYZWriter=T (release=T 2.4.3)=T pbc="F F F"
H      -17.39566000      16.96568000      -9.38767000
O      -17.71310000      17.68982000      -9.94311000
H      -16.90988000      18.18119000     -10.17461000
H      -15.30123000      16.15418000     -10.55844000
O      -15.57220000      15.96975000     -11.46420000
H      -14.85752000      15.36830000     -11.73674000
