6
Properties=species:S:1:pos:R:3 frame=T 37=T |=T Written=T by=T MDAnalysis=T XYZWriter=T (release=T 2.4.3)=T pbc="F F F"
H       17.01698000       4.86104000     -11.94760000
O       16.55061000       4.07476000     -12.22948000
H       16.40240000       3.58143000     -11.44207000
H       16.92750000       3.24559000      -8.89249000
O       16.67782000       2.68727000      -9.62181000
H       16.76029000       1.77738000      -9.28494000
