6
Properties=species:S:1:pos:R:3 frame=T 15=T |=T Written=T by=T MDAnalysis=T XYZWriter=T (release=T 2.4.3)=T pbc="F F F"
H       -9.30461000      15.08964000     -11.44253000
O       -8.77324000      14.53343000     -12.02927000
H       -9.44994000      14.04876000     -12.48604000
H       -5.96351000      12.86874000     -12.06386000
O       -6.45379000      13.01789000     -12.88106000
H       -6.98401000      13.78909000     -12.66489000
