6
Properties=species:S:1:pos:R:3 frame=T 15=T |=T Written=T by=T MDAnalysis=T XYZWriter=T (release=T 2.4.3)=T pbc="F F F"
H      -11.93803000       5.15292000     -17.68453000
O      -11.64297000       4.26073000     -17.50690000
H      -10.89593000       4.21908000     -18.10770000
H      -13.11096000       7.39717000     -17.42070000
O      -12.41176000       6.91756000     -16.97895000
H      -12.26431000       7.40918000     -16.13852000
