6
Properties=species:S:1:pos:R:3 frame=T 48=T |=T Written=T by=T MDAnalysis=T XYZWriter=T (release=T 2.4.3)=T pbc="F F F"
H        9.79247000       0.23441000      10.57381000
O        8.84059000       0.31777000      10.51826000
H        8.53675000      -0.42319000      11.05578000
H        9.35872000      -2.02347000      11.01813000
O        9.83452000      -1.87231000      11.81721000
H       10.04060000      -2.74492000      12.21258000
