6
Properties=species:S:1:pos:R:3 frame=T 43=T |=T Written=T by=T MDAnalysis=T XYZWriter=T (release=T 2.4.3)=T pbc="F F F"
H       13.18677000       6.08683000     -10.35555000
O       13.95601000       5.54746000     -10.00237000
H       14.49362000       5.46501000     -10.79644000
H       13.70008000       4.80101000      -8.20486000
O       13.64335000       4.38469000      -7.33449000
H       12.97070000       4.93046000      -6.97875000
