6
Properties=species:S:1:pos:R:3 frame=T 29=T |=T Written=T by=T MDAnalysis=T XYZWriter=T (release=T 2.4.3)=T pbc="F F F"
H      -12.14715000     -11.81703000      14.43530000
O      -12.83557000     -11.13015000      14.49372000
H      -13.52657000     -11.46495000      13.86017000
H      -11.11162000     -13.60603000      13.58654000
O      -11.01729000     -12.91624000      14.27738000
H      -10.43459000     -12.29059000      13.83797000
