6
Properties=species:S:1:pos:R:3 frame=T 49=T |=T Written=T by=T MDAnalysis=T XYZWriter=T (release=T 2.4.3)=T pbc="F F F"
H        8.97018000       8.11908000      -3.48077000
O        8.62327000       7.31765000      -3.02442000
H        7.92595000       7.71968000      -2.50202000
H        7.97659000       7.94905000      -6.11420000
O        7.26647000       8.23599000      -5.47329000
H        7.48888000       7.85948000      -4.62239000
