6
Properties=species:S:1:pos:R:3 frame=T 53=T |=T Written=T by=T MDAnalysis=T XYZWriter=T (release=T 2.4.3)=T pbc="F F F"
H        1.21768000      -0.93516000     -11.24204000
O        0.69140000      -1.28658000     -10.50725000
H        1.37392000      -1.37174000      -9.83284000
H        1.57153000      -2.24102000     -13.91043000
O        1.98582000      -1.82306000     -13.15944000
H        2.04889000      -0.87743000     -13.36442000
