6
Properties=species:S:1:pos:R:3 frame=T 50=T |=T Written=T by=T MDAnalysis=T XYZWriter=T (release=T 2.4.3)=T pbc="F F F"
H       -4.66730000      -9.82334000      11.15082000
O       -5.36161000     -10.18363000      11.68403000
H       -5.63816000      -9.43931000      12.20903000
H       -6.52140000      -9.92354000      10.46132000
O       -7.27916000     -10.09040000       9.86207000
H       -7.89000000      -9.42917000      10.13474000
