6
Properties=species:S:1:pos:R:3 frame=T 26=T |=T Written=T by=T MDAnalysis=T XYZWriter=T (release=T 2.4.3)=T pbc="F F F"
H        2.52457000       6.89158000       5.51934000
O        3.16572000       6.66584000       4.82883000
H        3.63665000       7.48540000       4.69958000
H        1.94071000       6.92624000       3.53039000
O        1.53169000       7.42319000       2.80369000
H        2.19480000       7.40528000       2.13046000
