6
Properties=species:S:1:pos:R:3 frame=T 33=T |=T Written=T by=T MDAnalysis=T XYZWriter=T (release=T 2.4.3)=T pbc="F F F"
H      -16.57677000       2.10430000      -9.50176000
O      -16.19546000       2.81391000     -10.03994000
H      -17.00102000       3.20878000     -10.38600000
H      -15.58124000       1.41775000     -12.57036000
O      -16.36372000       2.01270000     -12.66240000
H      -16.38510000       2.39023000     -11.77927000
