6
Properties=species:S:1:pos:R:3 frame=T 42=T |=T Written=T by=T MDAnalysis=T XYZWriter=T (release=T 2.4.3)=T pbc="F F F"
H       13.06739000      15.02468000       7.58295000
O       13.13945000      15.96273000       7.46899000
H       12.49092000      16.28415000       8.10304000
H       10.37267000      15.19862000       6.14082000
O       10.94266000      15.62866000       5.51911000
H       11.75594000      15.73614000       6.05400000
