6
Properties=species:S:1:pos:R:3 frame=T 45=T |=T Written=T by=T MDAnalysis=T XYZWriter=T (release=T 2.4.3)=T pbc="F F F"
H       12.80326000     -12.09565000     -12.37977000
O       12.00516000     -11.61118000     -12.20195000
H       11.39586000     -11.96389000     -12.85584000
H       12.60727000     -10.42495000     -13.31885000
O       13.14021000     -10.04618000     -14.01713000
H       13.19435000      -9.12774000     -13.77257000
