6
Properties=species:S:1:pos:R:3 frame=T 47=T |=T Written=T by=T MDAnalysis=T XYZWriter=T (release=T 2.4.3)=T pbc="F F F"
H       14.29573000      -9.67939000      -9.79299000
O       14.57559000      -8.97545000      -9.18763000
H       14.46105000      -8.19390000      -9.72847000
H       15.80885000      -9.89125000      -8.93853000
O       16.65017000     -10.27328000      -8.62313000
H       16.61132000     -11.19833000      -8.89481000
