6
Properties=species:S:1:pos:R:3 frame=T 11=T |=T Written=T by=T MDAnalysis=T XYZWriter=T (release=T 2.4.3)=T pbc="F F F"
H       14.50089000       9.91272000      -6.55838000
O       14.07549000       9.03690000      -6.60363000
H       13.36169000       9.22676000      -7.24516000
H       12.08593000       8.43771000      -9.72750000
O       11.85572000       8.97910000      -8.94905000
H       10.91770000       9.04900000      -8.85757000
