6
Properties=species:S:1:pos:R:3 frame=T 27=T |=T Written=T by=T MDAnalysis=T XYZWriter=T (release=T 2.4.3)=T pbc="F F F"
H        9.26187000       0.66790000       5.88684000
O        9.20913000      -0.28721000       5.68388000
H        8.75699000      -0.25625000       4.81489000
H        9.83557000      -0.17518000       2.96498000
O        8.89972000      -0.07791000       2.79113000
H        8.48152000      -0.92675000       3.00312000
