6
Properties=species:S:1:pos:R:3 frame=T 49=T |=T Written=T by=T MDAnalysis=T XYZWriter=T (release=T 2.4.3)=T pbc="F F F"
H       10.31847000       2.04047000     -18.17130000
O        9.35311000       1.96513000     -18.03818000
H        9.10723000       2.79762000     -17.63139000
H        7.59551000       3.55095000     -16.49585000
O        8.36806000       4.10016000     -16.61871000
H        9.03610000       3.78204000     -15.98683000
