6
Properties=species:S:1:pos:R:3 frame=T 2=T |=T Written=T by=T MDAnalysis=T XYZWriter=T (release=T 2.4.3)=T pbc="F F F"
H        7.25976000       8.87963000      -4.06320000
O        7.67487000       8.02383000      -3.92921000
H        8.53116000       8.24918000      -3.55586000
H        7.51369000       7.93024000      -0.76659000
O        7.22467000       7.20093000      -1.40279000
H        7.27413000       7.68219000      -2.25406000
