6
Properties=species:S:1:pos:R:3 frame=T 18=T |=T Written=T by=T MDAnalysis=T XYZWriter=T (release=T 2.4.3)=T pbc="F F F"
H      -17.21948000     -15.73466000       1.70971000
O      -17.88498000     -15.18012000       2.19219000
H      -18.29542000     -14.55912000       1.56783000
H      -16.42931000     -13.58511000       0.79748000
O      -16.70322000     -13.63563000      -0.12449000
H      -17.15344000     -12.78741000      -0.30981000
