6
Properties=species:S:1:pos:R:3 frame=T 1=T |=T Written=T by=T MDAnalysis=T XYZWriter=T (release=T 2.4.3)=T pbc="F F F"
H      -10.03836000     -12.12029000       6.39716000
O      -10.35898000     -12.97133000       6.67177000
H      -10.91775000     -12.74009000       7.45308000
H      -11.88316000     -12.04477000       5.55779000
O      -12.42432000     -11.40585000       5.12466000
H      -13.00904000     -11.10180000       5.84768000
