6
Properties=species:S:1:pos:R:3 frame=T 16=T |=T Written=T by=T MDAnalysis=T XYZWriter=T (release=T 2.4.3)=T pbc="F F F"
H       -3.61993000     -17.20757000      -5.91358000
O       -3.35475000     -17.70113000      -6.71201000
H       -2.55710000     -17.21230000      -6.96082000
H       -6.49166000     -18.26929000      -5.30769000
O       -6.59018000     -19.20593000      -5.54304000
H       -5.73035000     -19.62007000      -5.33663000
