6
Properties=species:S:1:pos:R:3 frame=T 30=T |=T Written=T by=T MDAnalysis=T XYZWriter=T (release=T 2.4.3)=T pbc="F F F"
H      -14.31016000      -3.21158000       0.15301000
O      -14.07977000      -2.29670000      -0.00671000
H      -14.74321000      -1.96024000      -0.63607000
H      -15.96418000      -0.55810000      -2.60145000
O      -15.17430000      -0.94069000      -2.17633000
H      -14.45653000      -0.33605000      -2.45147000
