6
Properties=species:S:1:pos:R:3 frame=T 4=T |=T Written=T by=T MDAnalysis=T XYZWriter=T (release=T 2.4.3)=T pbc="F F F"
H      -12.32260000       5.72173000      -3.63272000
O      -11.96257000       5.59088000      -4.51045000
H      -11.33230000       6.32204000      -4.57988000
H      -12.50342000       6.61880000      -6.93583000
O      -12.03077000       7.41101000      -6.72115000
H      -11.58215000       7.24655000      -5.86541000
