6
Properties=species:S:1:pos:R:3 frame=T 20=T |=T Written=T by=T MDAnalysis=T XYZWriter=T (release=T 2.4.3)=T pbc="F F F"
H       10.78978000      17.15867000       6.62083000
O       10.03471000      17.48687000       7.12234000
H       10.09509000      18.46160000       7.00697000
H        9.62191000      17.19092000       4.92883000
O       10.11441000      17.46297000       4.15964000
H        9.68452000      18.27169000       3.89733000
