6
Properties=species:S:1:pos:R:3 frame=T 40=T |=T Written=T by=T MDAnalysis=T XYZWriter=T (release=T 2.4.3)=T pbc="F F F"
H       -9.69161000       8.94101000     -18.23125000
O       -8.84555000       9.38577000     -18.37317000
H       -9.12405000      10.28659000     -18.20863000
H       -5.72276000       9.37400000     -17.27461000
O       -6.09033000       8.67814000     -17.86312000
H       -6.96646000       9.00229000     -18.11450000
