6
Properties=species:S:1:pos:R:3 frame=T 46=T |=T Written=T by=T MDAnalysis=T XYZWriter=T (release=T 2.4.3)=T pbc="F F F"
H       -6.95015000       8.53782000     -16.08412000
O       -7.92187000       8.47978000     -16.06753000
H       -8.13883000       8.28090000     -16.97853000
H       -7.76871000      10.24652000     -16.21239000
O       -8.09828000      11.13983000     -16.21463000
H       -7.57132000      11.54570000     -16.92566000
