6
Properties=species:S:1:pos:R:3 frame=T 40=T |=T Written=T by=T MDAnalysis=T XYZWriter=T (release=T 2.4.3)=T pbc="F F F"
H       -7.03955000     -15.13301000      -7.62635000
O       -6.16515000     -15.46083000      -7.84999000
H       -5.54148000     -14.85878000      -7.45577000
H       -6.74368000     -17.70390000      -8.08037000
O       -6.75794000     -18.58854000      -8.45018000
H       -6.69229000     -19.21350000      -7.71765000
