6
Properties=species:S:1:pos:R:3 frame=T 29=T |=T Written=T by=T MDAnalysis=T XYZWriter=T (release=T 2.4.3)=T pbc="F F F"
H      -13.02312000     -10.28381000       3.21889000
O      -13.21355000      -9.80353000       4.04229000
H      -13.58694000     -10.49583000       4.56141000
H      -15.03240000      -9.84228000       3.54592000
O      -15.91957000      -9.51172000       3.30310000
H      -16.33061000     -10.31795000       2.93102000
