6
Properties=species:S:1:pos:R:3 frame=T 16=T |=T Written=T by=T MDAnalysis=T XYZWriter=T (release=T 2.4.3)=T pbc="F F F"
H        0.98548000      10.79750000      11.78056000
O        1.05583000      10.82837000      10.80659000
H        1.98183000      10.67127000      10.67746000
H        0.38573000      13.59239000       8.97197000
O        0.02440000      13.51958000       9.87541000
H        0.46338000      12.74098000      10.26886000
