6
Properties=species:S:1:pos:R:3 frame=T 51=T |=T Written=T by=T MDAnalysis=T XYZWriter=T (release=T 2.4.3)=T pbc="F F F"
H        5.60858000      -6.79692000       1.16880000
O        5.31223000      -7.17038000       2.02382000
H        5.38549000      -8.11560000       1.88935000
H        6.80166000      -6.46168000      -0.33328000
O        6.15497000      -5.78505000      -0.12445000
H        5.40610000      -5.93935000      -0.70735000
