6
Properties=species:S:1:pos:R:3 frame=T 34=T |=T Written=T by=T MDAnalysis=T XYZWriter=T (release=T 2.4.3)=T pbc="F F F"
H       10.38480000      -2.86117000       3.64346000
O       10.12729000      -1.95087000       3.43918000
H        9.78253000      -1.67258000       4.29157000
H        9.72453000      -4.73589000       4.11641000
O       10.62479000      -4.45619000       3.87463000
H       10.75558000      -4.82708000       2.98505000
