6
Properties=species:S:1:pos:R:3 frame=T 28=T |=T Written=T by=T MDAnalysis=T XYZWriter=T (release=T 2.4.3)=T pbc="F F F"
H       -4.84263000       4.63667000      14.14790000
O       -5.67517000       4.97101000      13.80233000
H       -5.85339000       4.37958000      13.07607000
H       -3.46465000       4.78981000      15.12724000
O       -2.86875000       5.35842000      14.62594000
H       -2.40530000       5.78754000      15.34147000
