6
Properties=species:S:1:pos:R:3 frame=T 43=T |=T Written=T by=T MDAnalysis=T XYZWriter=T (release=T 2.4.3)=T pbc="F F F"
H      -13.25462000      11.39894000     -10.53754000
O      -12.73901000      12.18619000     -10.72177000
H      -12.16224000      12.23740000      -9.95613000
H      -13.53836000       9.66596000     -10.23307000
O      -14.36802000      10.04184000     -10.52009000
H      -14.94442000      10.05674000      -9.75034000
