6
Properties=species:S:1:pos:R:3 frame=T 25=T |=T Written=T by=T MDAnalysis=T XYZWriter=T (release=T 2.4.3)=T pbc="F F F"
H       12.44978000       7.87857000      -7.92928000
O       12.10692000       6.94982000      -7.75303000
H       11.78188000       6.98419000      -6.84951000
H       11.92181000       5.65843000      -9.19721000
O       11.91731000       4.83897000      -9.66909000
H       12.43622000       4.21620000      -9.14302000
