6
Properties=species:S:1:pos:R:3 frame=T 34=T |=T Written=T by=T MDAnalysis=T XYZWriter=T (release=T 2.4.3)=T pbc="F F F"
H      -10.15436000     -16.60539000       8.39911000
O       -9.86734000     -17.49955000       8.31798000
H       -9.72063000     -17.60121000       7.35793000
H       -9.09842000     -18.12732000       5.21060000
O       -9.72268000     -17.51160000       5.61761000
H      -10.44834000     -18.10847000       5.80612000
