6
Properties=species:S:1:pos:R:3 frame=T 26=T |=T Written=T by=T MDAnalysis=T XYZWriter=T (release=T 2.4.3)=T pbc="F F F"
H       -2.55664000     -10.93872000      -4.32102000
O       -2.94231000     -10.71702000      -5.17624000
H       -3.25643000     -11.59819000      -5.51712000
H       -0.17202000     -11.81195000      -7.48767000
O       -0.74377000     -11.81942000      -6.72923000
H       -1.39199000     -11.15036000      -6.98501000
