6
Properties=species:S:1:pos:R:3 frame=T 5=T |=T Written=T by=T MDAnalysis=T XYZWriter=T (release=T 2.4.3)=T pbc="F F F"
H       -6.39836000      10.94183000     -16.13546000
O       -6.79655000      10.48665000     -16.89229000
H       -6.40553000       9.60909000     -16.82291000
H       -5.49845000       7.09109000     -16.88423000
O       -5.91067000       7.69002000     -16.27949000
H       -5.35153000       7.68572000     -15.50124000
