6
Properties=species:S:1:pos:R:3 frame=T 37=T |=T Written=T by=T MDAnalysis=T XYZWriter=T (release=T 2.4.3)=T pbc="F F F"
H       -2.56568000       3.46821000     -15.59119000
O       -3.32539000       4.02094000     -15.86208000
H       -3.59805000       4.38770000     -15.03103000
H       -5.08200000       3.75680000     -18.54484000
O       -4.32944000       4.38036000     -18.49108000
H       -3.95564000       4.19787000     -17.62382000
