6
Properties=species:S:1:pos:R:3 frame=T 34=T |=T Written=T by=T MDAnalysis=T XYZWriter=T (release=T 2.4.3)=T pbc="F F F"
H       -5.07014000       9.65036000       3.15451000
O       -4.99658000      10.35282000       3.80863000
H       -4.28301000      10.06877000       4.39514000
H       -3.01641000       8.43847000       4.80048000
O       -2.94720000       9.28398000       5.24675000
H       -2.11579000       9.65961000       4.89025000
