6
Properties=species:S:1:pos:R:3 frame=T 30=T |=T Written=T by=T MDAnalysis=T XYZWriter=T (release=T 2.4.3)=T pbc="F F F"
H       -0.98746000       9.29703000      -9.20334000
O       -1.74594000       9.46080000      -8.65260000
H       -1.55210000      10.35784000      -8.28465000
H       -4.54739000      10.08000000      -7.46374000
O       -4.64783000       9.88109000      -8.38839000
H       -3.90828000       9.27279000      -8.52588000
