6
Properties=species:S:1:pos:R:3 frame=T 42=T |=T Written=T by=T MDAnalysis=T XYZWriter=T (release=T 2.4.3)=T pbc="F F F"
H       18.52663000     -12.63515000      16.01266000
O       17.65833000     -12.80413000      16.40769000
H       17.27781000     -13.61696000      15.96095000
H       18.45389000     -11.86912000      18.06467000
O       19.18095000     -11.25403000      18.24277000
H       18.79125000     -10.66196000      18.93756000
