6
Properties=species:S:1:pos:R:3 frame=T 49=T |=T Written=T by=T MDAnalysis=T XYZWriter=T (release=T 2.4.3)=T pbc="F F F"
H       -6.29683000      -6.65445000     -18.66062000
O       -6.45948000      -5.81058000     -19.09495000
H       -7.40695000      -5.70145000     -19.13962000
H       -5.79967000      -8.81922000     -18.56490000
O       -6.41620000      -8.23616000     -18.14411000
H       -7.24807000      -8.52678000     -18.49831000
