6
Properties=species:S:1:pos:R:3 frame=T 18=T |=T Written=T by=T MDAnalysis=T XYZWriter=T (release=T 2.4.3)=T pbc="F F F"
H       -3.59827000       0.83524000      14.00931000
O       -4.14756000       0.04044000      13.95213000
H       -3.69752000      -0.57191000      14.55577000
H       -6.77931000       0.30091000      12.06218000
O       -5.88588000       0.30776000      11.73244000
H       -5.35563000       0.14459000      12.50558000
