6
Properties=species:S:1:pos:R:3 frame=T 37=T |=T Written=T by=T MDAnalysis=T XYZWriter=T (release=T 2.4.3)=T pbc="F F F"
H       11.09069000     -11.74055000      15.34433000
O       11.13086000     -12.57580000      14.88852000
H       11.16418000     -13.23485000      15.59586000
H       13.24994000     -12.68434000      14.22840000
O       13.94650000     -13.08311000      13.72518000
H       13.47036000     -13.64901000      13.07889000
