6
Properties=species:S:1:pos:R:3 frame=T 32=T |=T Written=T by=T MDAnalysis=T XYZWriter=T (release=T 2.4.3)=T pbc="F F F"
H       10.90008000      -8.39285000       3.31150000
O       10.43954000      -7.70814000       3.84452000
H       10.17772000      -7.00644000       3.24319000
H       10.24730000      -5.74501000       0.60172000
O       10.11327000      -6.58028000       1.07474000
H        9.13360000      -6.71263000       1.14557000
