6
Properties=species:S:1:pos:R:3 frame=T 31=T |=T Written=T by=T MDAnalysis=T XYZWriter=T (release=T 2.4.3)=T pbc="F F F"
H      -10.95316000      -7.04732000      16.84077000
O      -11.36452000      -7.92067000      16.79871000
H      -10.82750000      -8.40829000      16.18089000
H       -9.51998000      -4.84072000      17.89468000
O      -10.24909000      -5.11796000      17.32548000
H       -9.80020000      -5.17345000      16.47324000
