6
Properties=species:S:1:pos:R:3 frame=T 26=T |=T Written=T by=T MDAnalysis=T XYZWriter=T (release=T 2.4.3)=T pbc="F F F"
H        6.33850000      -1.23809000      18.11331000
O        7.21255000      -1.67347000      18.05243000
H        6.98830000      -2.61780000      17.94289000
H        5.89885000      -5.11307000      17.32214000
O        5.99447000      -4.38942000      17.95785000
H        6.44976000      -4.81798000      18.72495000
