6
Properties=species:S:1:pos:R:3 frame=T 51=T |=T Written=T by=T MDAnalysis=T XYZWriter=T (release=T 2.4.3)=T pbc="F F F"
H        1.09193000     -14.50208000     -14.85669000
O        1.10076000     -15.42235000     -15.12055000
H        1.92820000     -15.55528000     -15.61554000
H        0.62022000     -12.85278000     -13.87710000
O        1.11518000     -12.77296000     -14.74188000
H        2.02476000     -12.60778000     -14.50993000
