6
Properties=species:S:1:pos:R:3 frame=T 2=T |=T Written=T by=T MDAnalysis=T XYZWriter=T (release=T 2.4.3)=T pbc="F F F"
H        2.13218000     -15.52470000     -13.83689000
O        3.01208000     -15.89013000     -13.73218000
H        2.86215000     -16.77510000     -14.07474000
H        0.98800000     -14.91092000     -11.51688000
O        1.76406000     -14.69510000     -10.98110000
H        2.49267000     -14.81594000     -11.63162000
