6
Properties=species:S:1:pos:R:3 frame=T 24=T |=T Written=T by=T MDAnalysis=T XYZWriter=T (release=T 2.4.3)=T pbc="F F F"
H      -10.21617000     -12.98439000     -16.77050000
O      -10.16418000     -13.87972000     -17.08665000
H      -11.08441000     -14.20068000     -16.91062000
H       -7.59000000     -15.77854000     -17.42052000
O       -7.68130000     -14.96372000     -16.94005000
H       -8.43133000     -14.57179000     -17.40137000
