6
Properties=species:S:1:pos:R:3 frame=T 23=T |=T Written=T by=T MDAnalysis=T XYZWriter=T (release=T 2.4.3)=T pbc="F F F"
H       -7.74036000       2.11625000      -6.33001000
O       -7.94409000       2.10477000      -7.26922000
H       -7.97847000       3.04238000      -7.48917000
H       -6.54879000       0.51252000      -7.33080000
O       -5.86794000       0.44173000      -7.98494000
H       -5.24222000      -0.19765000      -7.59717000
