6
Properties=species:S:1:pos:R:3 frame=T 40=T |=T Written=T by=T MDAnalysis=T XYZWriter=T (release=T 2.4.3)=T pbc="F F F"
H       -1.96130000      14.74748000      -8.11459000
O       -1.53727000      15.59630000      -8.11885000
H       -0.96893000      15.53364000      -7.33716000
H       -0.40147000      17.14578000     -10.78281000
O       -0.02211000      17.25727000      -9.91093000
H       -0.65604000      16.76740000      -9.36542000
