6
Properties=species:S:1:pos:R:3 frame=T 41=T |=T Written=T by=T MDAnalysis=T XYZWriter=T (release=T 2.4.3)=T pbc="F F F"
H       -5.75861000     -14.71404000       5.19304000
O       -5.19896000     -15.40819000       4.82732000
H       -5.32983000     -16.20360000       5.37997000
H       -5.51001000     -13.32490000       6.83676000
O       -6.07532000     -12.73811000       6.33948000
H       -6.88820000     -12.67658000       6.85844000
