6
Properties=species:S:1:pos:R:3 frame=T 37=T |=T Written=T by=T MDAnalysis=T XYZWriter=T (release=T 2.4.3)=T pbc="F F F"
H      -12.23023000     -13.19456000      -6.21847000
O      -12.27399000     -12.99800000      -5.30315000
H      -11.37704000     -13.23032000      -4.99294000
H       -9.38847000     -14.35961000      -3.81365000
O       -9.77548000     -14.42611000      -4.69427000
H       -9.81414000     -15.38417000      -4.79777000
