6
Properties=species:S:1:pos:R:3 frame=T 10=T |=T Written=T by=T MDAnalysis=T XYZWriter=T (release=T 2.4.3)=T pbc="F F F"
H        3.25294000     -13.38265000       5.18342000
O        3.34050000     -12.94686000       4.30677000
H        2.67720000     -13.43890000       3.81323000
H        3.61035000     -10.70342000       3.93461000
O        4.12697000      -9.90521000       3.89470000
H        3.90824000      -9.41375000       4.66603000
