6
Properties=species:S:1:pos:R:3 frame=T 53=T |=T Written=T by=T MDAnalysis=T XYZWriter=T (release=T 2.4.3)=T pbc="F F F"
H        0.52395000      16.21314000       5.85289000
O       -0.25924000      16.18830000       6.39701000
H       -0.15881000      17.01404000       6.91715000
H       -1.29286000      14.23284000       9.11271000
O       -1.22155000      15.16806000       8.84822000
H       -0.77949000      15.09501000       8.00330000
