6
Properties=species:S:1:pos:R:3 frame=T 52=T |=T Written=T by=T MDAnalysis=T XYZWriter=T (release=T 2.4.3)=T pbc="F F F"
H       13.74549000      16.81761000      -5.55877000
O       14.31453000      16.39130000      -4.89975000
H       13.85439000      16.50377000      -4.05282000
H       16.16477000      18.97329000      -5.04894000
O       15.45398000      18.73923000      -4.46852000
H       15.37745000      17.80297000      -4.67607000
