6
Properties=species:S:1:pos:R:3 frame=T 11=T |=T Written=T by=T MDAnalysis=T XYZWriter=T (release=T 2.4.3)=T pbc="F F F"
H       10.69323000       4.90895000      -0.62232000
O       10.36219000       4.80829000       0.29272000
H       11.07667000       4.38125000       0.75575000
H       12.53553000       4.49786000       2.40376000
O       12.36090000       3.72927000       1.84405000
H       12.95880000       3.93975000       1.10455000
