6
Properties=species:S:1:pos:R:3 frame=T 36=T |=T Written=T by=T MDAnalysis=T XYZWriter=T (release=T 2.4.3)=T pbc="F F F"
H        8.10500000      -1.54811000     -13.61236000
O        7.66900000      -0.76729000     -14.00962000
H        8.29000000      -0.01704000     -14.00323000
H        9.27172000      -3.18058000     -13.57883000
O        8.84098000      -2.95515000     -12.73790000
H        9.48259000      -2.41579000     -12.22074000
