6
Properties=species:S:1:pos:R:3 frame=T 5=T |=T Written=T by=T MDAnalysis=T XYZWriter=T (release=T 2.4.3)=T pbc="F F F"
H       16.49035000       2.85827000       6.89984000
O       16.64318000       1.97381000       7.28036000
H       15.96092000       1.48402000       6.87064000
H       19.15178000       1.28127000       9.82908000
O       19.16042000       1.92425000       9.11822000
H       18.25671000       1.90017000       8.81941000
