6
Properties=species:S:1:pos:R:3 frame=T 33=T |=T Written=T by=T MDAnalysis=T XYZWriter=T (release=T 2.4.3)=T pbc="F F F"
H      -15.12012000       5.17674000      -9.91820000
O      -15.88368000       5.72426000     -10.09620000
H      -16.43370000       5.18158000     -10.64642000
H      -13.80792000       7.70823000     -10.38652000
O      -14.29252000       7.56936000     -11.20115000
H      -14.92237000       6.87240000     -11.04212000
