6
Properties=species:S:1:pos:R:3 frame=T 40=T |=T Written=T by=T MDAnalysis=T XYZWriter=T (release=T 2.4.3)=T pbc="F F F"
H       16.04962000      -8.07031000      16.97103000
O       15.92635000      -7.37800000      17.61594000
H       15.41796000      -6.71799000      17.12455000
H       17.51560000      -6.17187000      18.38128000
O       17.42377000      -5.51338000      19.06413000
H       16.46919000      -5.49500000      19.26927000
