6
Properties=species:S:1:pos:R:3 frame=T 14=T |=T Written=T by=T MDAnalysis=T XYZWriter=T (release=T 2.4.3)=T pbc="F F F"
H       -3.37535000      -6.63687000      -5.02567000
O       -4.25974000      -6.52296000      -5.40426000
H       -4.50751000      -5.64684000      -5.10179000
H       -3.64883000      -3.28318000      -4.90745000
O       -4.02584000      -3.84093000      -4.21453000
H       -3.30905000      -3.84449000      -3.57082000
