6
Properties=species:S:1:pos:R:3 frame=T 35=T |=T Written=T by=T MDAnalysis=T XYZWriter=T (release=T 2.4.3)=T pbc="F F F"
H      -11.03776000       8.14998000      -5.57749000
O      -11.12755000       9.09509000      -5.47044000
H      -10.55227000       9.53758000      -6.11644000
H       -8.69104000      10.03677000      -7.29889000
O       -9.48012000      10.35149000      -7.73610000
H       -9.34612000      11.30874000      -7.77678000
