6
Properties=species:S:1:pos:R:3 frame=T 29=T |=T Written=T by=T MDAnalysis=T XYZWriter=T (release=T 2.4.3)=T pbc="F F F"
H        7.76445000       7.63593000       7.48126000
O        8.09570000       8.55802000       7.42450000
H        8.40895000       8.78714000       8.31198000
H        8.77643000       9.81810000      10.69004000
O        9.14376000       9.58134000       9.80858000
H       10.02134000       9.26007000      10.04302000
