6
Properties=species:S:1:pos:R:3 frame=T 46=T |=T Written=T by=T MDAnalysis=T XYZWriter=T (release=T 2.4.3)=T pbc="F F F"
H        8.64345000      12.98530000      15.60456000
O        9.29400000      12.73484000      14.90636000
H       10.13710000      12.83808000      15.38618000
H        7.07019000      13.33731000      17.13882000
O        7.89030000      12.83934000      17.27782000
H        8.49478000      13.46793000      17.72335000
