6
Properties=species:S:1:pos:R:3 frame=T 9=T |=T Written=T by=T MDAnalysis=T XYZWriter=T (release=T 2.4.3)=T pbc="F F F"
H      -13.09427000      16.89419000       0.95376000
O      -13.69905000      17.41453000       0.40067000
H      -14.05622000      18.01060000       1.05817000
H      -16.09018000      15.55912000       0.99339000
O      -15.48040000      15.28205000       0.28603000
H      -14.72431000      15.87878000       0.41049000
