6
Properties=species:S:1:pos:R:3 frame=T 44=T |=T Written=T by=T MDAnalysis=T XYZWriter=T (release=T 2.4.3)=T pbc="F F F"
H       -5.66997000      14.17824000      -8.63125000
O       -5.98455000      15.07209000      -8.85836000
H       -5.72804000      15.59248000      -8.11405000
H       -5.15624000      17.69674000      -8.94736000
O       -5.69723000      17.68048000      -9.77628000
H       -6.17791000      16.85160000      -9.72688000
