6
Properties=species:S:1:pos:R:3 frame=T 25=T |=T Written=T by=T MDAnalysis=T XYZWriter=T (release=T 2.4.3)=T pbc="F F F"
H      -11.88393000       7.85305000     -15.53974000
O      -11.46358000       7.89016000     -14.66766000
H      -10.53995000       8.10198000     -14.84937000
H      -12.16749000      10.91297000     -14.35103000
O      -12.46446000      10.74445000     -15.26990000
H      -12.34488000       9.76262000     -15.30169000
