6
Properties=species:S:1:pos:R:3 frame=T 39=T |=T Written=T by=T MDAnalysis=T XYZWriter=T (release=T 2.4.3)=T pbc="F F F"
H        7.77783000     -13.73818000       3.02773000
O        8.17173000     -12.97136000       2.59142000
H        8.95081000     -12.82315000       3.11549000
H        6.99027000     -10.87444000       4.77393000
O        7.85257000     -11.23744000       5.00596000
H        7.83820000     -12.07807000       4.53454000
