6
Properties=species:S:1:pos:R:3 frame=T 52=T |=T Written=T by=T MDAnalysis=T XYZWriter=T (release=T 2.4.3)=T pbc="F F F"
H        9.69920000      -1.27560000       9.66377000
O        9.02177000      -1.21624000       8.96346000
H        8.50192000      -1.98080000       9.11481000
H       12.20387000      -0.81906000      10.47030000
O       11.29046000      -1.02486000      10.61162000
H       11.03280000      -0.45306000      11.35239000
