6
Properties=species:S:1:pos:R:3 frame=T 18=T |=T Written=T by=T MDAnalysis=T XYZWriter=T (release=T 2.4.3)=T pbc="F F F"
H       10.69235000     -16.80248000     -14.74853000
O       10.11125000     -16.04422000     -14.89071000
H       10.57335000     -15.60166000     -15.61538000
H        9.23265000     -14.30030000     -12.10736000
O       10.04854000     -14.44589000     -12.60367000
H        9.70261000     -14.91225000     -13.39933000
