6
Properties=species:S:1:pos:R:3 frame=T 23=T |=T Written=T by=T MDAnalysis=T XYZWriter=T (release=T 2.4.3)=T pbc="F F F"
H       11.23756000     -16.62922000      -8.09435000
O       11.54516000     -17.51337000      -8.28934000
H       12.26688000     -17.41742000      -8.89217000
H       13.08413000     -17.51335000      -6.83476000
O       13.35078000     -17.00394000      -6.04292000
H       14.08719000     -16.53132000      -6.41751000
