6
Properties=species:S:1:pos:R:3 frame=T 20=T |=T Written=T by=T MDAnalysis=T XYZWriter=T (release=T 2.4.3)=T pbc="F F F"
H       -3.91804000      -1.57487000     -11.39880000
O       -4.53250000      -2.31545000     -11.50184000
H       -5.40071000      -1.88870000     -11.57975000
H       -7.70444000      -1.02727000     -11.45645000
O       -6.90479000      -0.67603000     -11.06164000
H       -7.10016000      -0.42515000     -10.15958000
