6
Properties=species:S:1:pos:R:3 frame=T 33=T |=T Written=T by=T MDAnalysis=T XYZWriter=T (release=T 2.4.3)=T pbc="F F F"
H      -15.86438000      -8.65735000       8.06937000
O      -16.02577000      -9.56360000       8.37404000
H      -15.33705000      -9.62433000       9.04600000
H      -13.68046000     -10.60799000       6.35769000
O      -13.82097000     -11.28005000       7.06617000
H      -14.62374000     -11.02225000       7.52299000
