6
Properties=species:S:1:pos:R:3 frame=T 9=T |=T Written=T by=T MDAnalysis=T XYZWriter=T (release=T 2.4.3)=T pbc="F F F"
H       -3.48105000      -3.19837000       1.29103000
O       -4.27623000      -2.77303000       1.63206000
H       -4.98742000      -2.90083000       0.99314000
H       -1.71151000      -4.61494000       1.55251000
O       -1.76062000      -3.66188000       1.37334000
H       -0.93785000      -3.35709000       1.83512000
