6
Properties=species:S:1:pos:R:3 frame=T 4=T |=T Written=T by=T MDAnalysis=T XYZWriter=T (release=T 2.4.3)=T pbc="F F F"
H       -4.75412000     -13.03240000      -4.99141000
O       -4.17081000     -12.44598000      -4.51130000
H       -4.68489000     -12.14212000      -3.73030000
H       -6.93325000     -11.71386000      -5.67625000
O       -6.14052000     -11.16050000      -5.82870000
H       -5.39623000     -11.64071000      -5.43499000
