6
Properties=species:S:1:pos:R:3 frame=T 32=T |=T Written=T by=T MDAnalysis=T XYZWriter=T (release=T 2.4.3)=T pbc="F F F"
H       -4.65296000      15.94158000       1.63995000
O       -4.41132000      16.02515000       2.61274000
H       -3.88403000      15.23115000       2.72996000
H       -3.61709000      12.99686000       0.62085000
O       -3.87372000      13.40723000       1.47955000
H       -3.04813000      13.28521000       2.00298000
