6
Properties=species:S:1:pos:R:3 frame=T 30=T |=T Written=T by=T MDAnalysis=T XYZWriter=T (release=T 2.4.3)=T pbc="F F F"
H       -9.38507000      15.26444000      10.37204000
O       -9.73438000      15.25069000       9.47730000
H       -9.01839000      14.94242000       8.89872000
H       -7.44289000      13.66054000       8.60759000
O       -7.36868000      14.56239000       8.26271000
H       -6.50582000      14.90017000       8.57717000
