6
Properties=species:S:1:pos:R:3 frame=T 13=T |=T Written=T by=T MDAnalysis=T XYZWriter=T (release=T 2.4.3)=T pbc="F F F"
H      -14.06532000      11.12728000      14.17377000
O      -14.74936000      10.45745000      14.33558000
H      -15.29790000      10.87328000      15.03249000
H      -14.29862000       9.25838000      15.85785000
O      -14.75778000       8.94686000      16.64954000
H      -14.35487000       9.47775000      17.37253000
