6
Properties=species:S:1:pos:R:3 frame=T 39=T |=T Written=T by=T MDAnalysis=T XYZWriter=T (release=T 2.4.3)=T pbc="F F F"
H       14.76913000     -11.06633000     -18.25782000
O       15.07604000     -11.71941000     -17.60724000
H       14.34253000     -12.33709000     -17.55602000
H       17.03537000     -12.07781000     -17.98380000
O       17.96306000     -11.88671000     -17.86016000
H       17.95350000     -11.12408000     -17.25491000
