6
Properties=species:S:1:pos:R:3 frame=T 12=T |=T Written=T by=T MDAnalysis=T XYZWriter=T (release=T 2.4.3)=T pbc="F F F"
H        2.41431000       4.19041000      14.30034000
O        1.84878000       4.94857000      14.44280000
H        2.38073000       5.58909000      14.98361000
H        3.38707000       2.40936000      15.07498000
O        3.35225000       2.44186000      14.13380000
H        4.05025000       1.88163000      13.80465000
