6
Properties=species:S:1:pos:R:3 frame=T 43=T |=T Written=T by=T MDAnalysis=T XYZWriter=T (release=T 2.4.3)=T pbc="F F F"
H        7.15374000     -12.49315000      10.88742000
O        6.24010000     -12.36628000      10.60214000
H        5.94103000     -13.23363000      10.31547000
H        8.77841000     -12.43080000       9.60136000
O        8.99137000     -12.35117000      10.52214000
H        9.42388000     -13.15121000      10.79599000
