6
Properties=species:S:1:pos:R:3 frame=T 6=T |=T Written=T by=T MDAnalysis=T XYZWriter=T (release=T 2.4.3)=T pbc="F F F"
H       19.28556000      -9.05620000       7.60263000
O       18.55673000      -9.18134000       8.23748000
H       17.82568000      -9.57304000       7.69907000
H       15.84436000     -11.72352000       8.35142000
O       15.96767000     -10.75578000       8.23095000
H       15.17507000     -10.52666000       7.73925000
