6
Properties=species:S:1:pos:R:3 frame=T 2=T |=T Written=T by=T MDAnalysis=T XYZWriter=T (release=T 2.4.3)=T pbc="F F F"
H        2.02377000       9.15037000     -15.44010000
O        2.58757000       8.93856000     -14.70381000
H        2.57703000       7.98421000     -14.61193000
H        2.86402000      11.93816000     -13.53870000
O        3.56364000      11.27691000     -13.46814000
H        3.14114000      10.46323000     -13.79951000
