6
Properties=species:S:1:pos:R:3 frame=T 25=T |=T Written=T by=T MDAnalysis=T XYZWriter=T (release=T 2.4.3)=T pbc="F F F"
H       -8.06670000      11.78179000     -15.73387000
O       -7.99931000      11.45406000     -14.80740000
H       -7.05045000      11.36910000     -14.63728000
H       -8.38825000       9.80735000     -14.73716000
O       -8.80828000       8.93075000     -14.80036000
H       -8.04766000       8.39533000     -14.65873000
