6
Properties=species:S:1:pos:R:3 frame=T 43=T |=T Written=T by=T MDAnalysis=T XYZWriter=T (release=T 2.4.3)=T pbc="F F F"
H       11.69740000       4.85046000      -0.72319000
O       10.90875000       4.41508000      -0.33025000
H       10.25043000       5.11590000      -0.56967000
H       11.64416000       2.84932000       0.65218000
O       12.07619000       2.02601000       0.87608000
H       12.54134000       1.88873000       0.05095000
