6
Properties=species:S:1:pos:R:3 frame=T 11=T |=T Written=T by=T MDAnalysis=T XYZWriter=T (release=T 2.4.3)=T pbc="F F F"
H        5.87174000      -7.70505000       5.50961000
O        5.58408000      -8.33256000       4.85047000
H        4.86609000      -8.83079000       5.22686000
H        7.26202000     -10.95530000       6.03243000
O        7.21441000     -10.10227000       6.52702000
H        6.67687000      -9.48528000       5.97061000
