6
Properties=species:S:1:pos:R:3 frame=T 17=T |=T Written=T by=T MDAnalysis=T XYZWriter=T (release=T 2.4.3)=T pbc="F F F"
H       15.07465000     -15.99811000      -7.63609000
O       15.06672000     -16.95500000      -7.46041000
H       15.37422000     -17.31886000      -8.29333000
H       16.37746000     -17.42318000      -6.10291000
O       16.62923000     -17.93378000      -5.33649000
H       17.59676000     -17.78844000      -5.24358000
