6
Properties=species:S:1:pos:R:3 frame=T 3=T |=T Written=T by=T MDAnalysis=T XYZWriter=T (release=T 2.4.3)=T pbc="F F F"
H        5.91390000       7.74691000      11.68791000
O        6.83834000       7.78355000      11.38116000
H        6.82315000       8.25158000      10.55349000
H        7.45021000       9.40784000       9.14078000
O        6.91286000       8.73441000       8.68967000
H        6.03028000       9.17554000       8.68274000
