6
Properties=species:S:1:pos:R:3 frame=T 37=T |=T Written=T by=T MDAnalysis=T XYZWriter=T (release=T 2.4.3)=T pbc="F F F"
H       -3.00343000       1.94969000      17.37553000
O       -3.22965000       1.03381000      17.43986000
H       -4.11592000       0.99772000      17.03321000
H       -2.82968000       3.62609000      18.94761000
O       -2.11081000       3.14614000      18.51530000
H       -1.85526000       2.42102000      19.12575000
