6
Properties=species:S:1:pos:R:3 frame=T 8=T |=T Written=T by=T MDAnalysis=T XYZWriter=T (release=T 2.4.3)=T pbc="F F F"
H        1.62976000      10.95183000      -3.71346000
O        1.88444000      11.27640000      -2.81236000
H        1.07387000      11.70494000      -2.49325000
H        1.94261000      10.80690000      -6.29896000
O        2.00724000      10.03041000      -5.75136000
H        2.26213000       9.32584000      -6.36885000
