6
Properties=species:S:1:pos:R:3 frame=T 3=T |=T Written=T by=T MDAnalysis=T XYZWriter=T (release=T 2.4.3)=T pbc="F F F"
H        2.36057000      16.35742000     -11.35996000
O        2.43255000      16.94122000     -10.60727000
H        1.88765000      17.68383000     -10.90674000
H        1.02146000      16.74829000      -9.51208000
O        0.38170000      16.90800000      -8.81161000
H       -0.41671000      16.43917000      -9.07568000
