6
Properties=species:S:1:pos:R:3 frame=T 21=T |=T Written=T by=T MDAnalysis=T XYZWriter=T (release=T 2.4.3)=T pbc="F F F"
H       17.75273000      -0.05493000      12.30509000
O       17.98959000       0.43527000      11.49251000
H       17.18425000       0.39543000      10.97544000
H       15.31794000       0.68066000      10.15275000
O       16.12810000       0.72250000       9.64783000
H       16.11399000      -0.13507000       9.19639000
