6
Properties=species:S:1:pos:R:3 frame=T 11=T |=T Written=T by=T MDAnalysis=T XYZWriter=T (release=T 2.4.3)=T pbc="F F F"
H      -10.94582000      -3.46286000     -13.53081000
O      -11.42028000      -2.70521000     -13.14709000
H      -12.35088000      -2.84478000     -13.45660000
H      -14.02091000      -1.81038000     -13.86126000
O      -14.19010000      -2.72496000     -13.66193000
H      -14.13439000      -3.15082000     -14.52506000
