6
Properties=species:S:1:pos:R:3 frame=T 38=T |=T Written=T by=T MDAnalysis=T XYZWriter=T (release=T 2.4.3)=T pbc="F F F"
H        9.40421000       8.22497000      -3.61689000
O        8.88620000       8.21636000      -4.42846000
H        8.85180000       7.27367000      -4.63323000
H       10.93116000       7.37977000      -1.48220000
O       10.46067000       6.94101000      -2.21041000
H        9.60756000       6.76926000      -1.74572000
