6
Properties=species:S:1:pos:R:3 frame=T 1=T |=T Written=T by=T MDAnalysis=T XYZWriter=T (release=T 2.4.3)=T pbc="F F F"
H      -10.68348000      10.14483000      10.36073000
O      -10.38474000       9.33343000       9.97931000
H      -10.23503000       9.52817000       9.02008000
H      -10.09525000       9.70755000       6.99241000
O       -9.28195000       9.50194000       7.48444000
H       -8.61865000       9.44092000       6.80045000
