6
Properties=species:S:1:pos:R:3 frame=T 43=T |=T Written=T by=T MDAnalysis=T XYZWriter=T (release=T 2.4.3)=T pbc="F F F"
H       -7.38600000       9.09538000       9.95266000
O       -7.91385000       8.78446000      10.68269000
H       -8.66178000       8.33060000      10.24365000
H       -6.69806000       5.99593000      11.76080000
O       -7.55759000       6.17562000      11.33849000
H       -7.44723000       7.10688000      11.06286000
