6
Properties=species:S:1:pos:R:3 frame=T 4=T |=T Written=T by=T MDAnalysis=T XYZWriter=T (release=T 2.4.3)=T pbc="F F F"
H       -2.98977000      16.93035000      14.36460000
O       -2.75576000      17.76615000      13.92877000
H       -2.06275000      17.43406000      13.34657000
H        0.17135000      18.91503000      13.39021000
O       -0.04486000      18.38974000      12.62313000
H       -0.02340000      17.45723000      12.87412000
