6
Properties=species:S:1:pos:R:3 frame=T 37=T |=T Written=T by=T MDAnalysis=T XYZWriter=T (release=T 2.4.3)=T pbc="F F F"
H      -13.98996000      -8.32993000      16.90240000
O      -14.94221000      -8.45381000      16.90807000
H      -15.24290000      -8.32687000      15.98722000
H      -11.43506000      -8.14207000      17.18034000
O      -12.29796000      -7.71548000      17.11961000
H      -12.29539000      -7.25755000      17.97624000
