6
Properties=species:S:1:pos:R:3 frame=T 16=T |=T Written=T by=T MDAnalysis=T XYZWriter=T (release=T 2.4.3)=T pbc="F F F"
H      -10.34167000       7.14833000      -8.70053000
O      -11.10543000       6.56256000      -8.62115000
H      -10.75419000       5.75411000      -8.22915000
H      -12.21214000       7.28495000      -5.60773000
O      -11.57174000       7.78497000      -6.15845000
H      -11.41554000       7.17727000      -6.90798000
