6
Properties=species:S:1:pos:R:3 frame=T 19=T |=T Written=T by=T MDAnalysis=T XYZWriter=T (release=T 2.4.3)=T pbc="F F F"
H       -5.61232000      11.26443000     -16.92985000
O       -5.59205000      10.48148000     -16.34971000
H       -6.10198000      10.80443000     -15.60176000
H       -3.73815000       9.98747000     -16.36505000
O       -2.92135000       9.52591000     -16.19901000
H       -2.31179000      10.24524000     -16.05035000
