6
Properties=species:S:1:pos:R:3 frame=T 17=T |=T Written=T by=T MDAnalysis=T XYZWriter=T (release=T 2.4.3)=T pbc="F F F"
H        5.70583000     -17.95929000      18.80583000
O        6.16678000     -18.82476000      18.86988000
H        5.59228000     -19.36837000      18.30463000
H        6.01101000     -17.27810000      14.76925000
O        5.66191000     -17.98583000      15.29091000
H        6.06749000     -17.88779000      16.15256000
