6
Properties=species:S:1:pos:R:3 frame=T 31=T |=T Written=T by=T MDAnalysis=T XYZWriter=T (release=T 2.4.3)=T pbc="F F F"
H       11.20269000      -4.66646000      15.71665000
O       10.31930000      -5.01620000      15.57231000
H       10.40984000      -5.93964000      15.31383000
H        9.16861000      -4.80273000      18.48742000
O        9.52713000      -5.61704000      18.08301000
H        9.84183000      -5.31877000      17.20901000
