6
Properties=species:S:1:pos:R:3 frame=T 48=T |=T Written=T by=T MDAnalysis=T XYZWriter=T (release=T 2.4.3)=T pbc="F F F"
H      -15.90127000       9.95382000      -0.79002000
O      -16.53394000      10.09535000      -0.07864000
H      -17.37420000       9.99879000      -0.52490000
H      -16.62710000      11.90167000      -0.19451000
O      -16.73695000      12.84713000      -0.04221000
H      -16.22814000      13.27568000      -0.73266000
