6
Properties=species:S:1:pos:R:3 frame=T 25=T |=T Written=T by=T MDAnalysis=T XYZWriter=T (release=T 2.4.3)=T pbc="F F F"
H       -9.39411000      -3.96012000      10.23668000
O       -9.27125000      -4.89160000      10.13620000
H      -10.12779000      -5.28819000      10.33406000
H       -7.83289000      -2.82166000       9.66870000
O       -8.44131000      -2.16761000       9.26591000
H       -8.78694000      -2.62994000       8.51318000
