6
Properties=species:S:1:pos:R:3 frame=T 36=T |=T Written=T by=T MDAnalysis=T XYZWriter=T (release=T 2.4.3)=T pbc="F F F"
H       -4.57701000      18.92462000      10.33763000
O       -4.60216000      19.26250000      11.21824000
H       -4.83687000      18.45736000      11.71745000
H       -6.40081000      16.99489000      12.60792000
O       -5.44317000      16.90145000      12.68644000
H       -5.32220000      15.95824000      12.56353000
