6
Properties=species:S:1:pos:R:3 frame=T 3=T |=T Written=T by=T MDAnalysis=T XYZWriter=T (release=T 2.4.3)=T pbc="F F F"
H       -7.73430000       1.13206000       8.16539000
O       -8.58089000       1.25513000       8.59353000
H       -8.30708000       1.68228000       9.42722000
H      -10.68925000       3.95114000       8.01942000
O       -9.77506000       3.69261000       7.85980000
H       -9.78594000       2.72293000       7.92153000
