6
Properties=species:S:1:pos:R:3 frame=T 12=T |=T Written=T by=T MDAnalysis=T XYZWriter=T (release=T 2.4.3)=T pbc="F F F"
H       13.76439000      -3.09357000     -10.31486000
O       14.14943000      -3.78031000     -10.88228000
H       14.96286000      -3.92993000     -10.36364000
H       12.65725000      -6.19956000      -9.41238000
O       12.31192000      -5.62586000     -10.09646000
H       13.04618000      -5.07156000     -10.38795000
