6
Properties=species:S:1:pos:R:3 frame=T 4=T |=T Written=T by=T MDAnalysis=T XYZWriter=T (release=T 2.4.3)=T pbc="F F F"
H       -6.15062000     -18.26668000      15.53184000
O       -5.71717000     -17.64637000      16.16267000
H       -6.50511000     -17.36615000      16.66761000
H       -4.14035000     -15.04701000      17.92038000
O       -5.09328000     -14.81198000      17.96273000
H       -5.55713000     -15.65212000      18.02750000
