6
Properties=species:S:1:pos:R:3 frame=T 7=T |=T Written=T by=T MDAnalysis=T XYZWriter=T (release=T 2.4.3)=T pbc="F F F"
H        8.25597000     -12.96554000      14.73196000
O        9.18463000     -12.64690000      14.79607000
H        9.35514000     -12.30840000      13.95524000
H       10.94317000     -13.24701000      14.95487000
O       11.66112000     -13.73147000      15.40344000
H       12.34708000     -13.05159000      15.45877000
