6
Properties=species:S:1:pos:R:3 frame=T 32=T |=T Written=T by=T MDAnalysis=T XYZWriter=T (release=T 2.4.3)=T pbc="F F F"
H        2.12409000       6.01686000      18.98475000
O        2.22073000       5.75324000      18.06389000
H        1.90972000       6.52659000      17.56195000
H       -1.28578000       6.74516000      18.67141000
O       -0.69952000       6.17757000      18.12644000
H        0.06470000       6.70577000      17.90689000
