6
Properties=species:S:1:pos:R:3 frame=T 54=T |=T Written=T by=T MDAnalysis=T XYZWriter=T (release=T 2.4.3)=T pbc="F F F"
H       18.79303000      -4.49487000     -10.48567000
O       18.45318000      -5.01301000      -9.73976000
H       19.17277000      -5.61766000      -9.52491000
H       16.77117000      -5.61151000     -10.01655000
O       15.88780000      -5.66861000     -10.41695000
H       16.11867000      -5.83557000     -11.37431000
