6
Properties=species:S:1:pos:R:3 frame=T 18=T |=T Written=T by=T MDAnalysis=T XYZWriter=T (release=T 2.4.3)=T pbc="F F F"
H        0.69833000      -8.15869000       8.72292000
O        1.42895000      -8.73294000       8.44460000
H        1.07781000      -9.09330000       7.62335000
H       -0.41243000     -10.70425000       6.33986000
O       -0.19673000      -9.77399000       6.50137000
H       -1.06904000      -9.36925000       6.69801000
