6
Properties=species:S:1:pos:R:3 frame=T 21=T |=T Written=T by=T MDAnalysis=T XYZWriter=T (release=T 2.4.3)=T pbc="F F F"
H       -5.12537000      -0.50886000     -16.51567000
O       -4.19685000      -0.55110000     -16.74422000
H       -3.81301000       0.20216000     -16.28353000
H       -0.92855000      -0.92706000     -16.71882000
O       -1.58580000      -1.62693000     -16.84746000
H       -2.47793000      -1.17280000     -16.81632000
