6
Properties=species:S:1:pos:R:3 frame=T 15=T |=T Written=T by=T MDAnalysis=T XYZWriter=T (release=T 2.4.3)=T pbc="F F F"
H       18.12196000       2.37830000      -1.48841000
O       17.75758000       3.25296000      -1.22942000
H       18.48920000       3.83843000      -1.46124000
H       16.76104000       2.51808000      -2.92503000
O       16.21213000       1.77745000      -3.18459000
H       15.43977000       1.89742000      -2.60014000
