6
Properties=species:S:1:pos:R:3 frame=T 40=T |=T Written=T by=T MDAnalysis=T XYZWriter=T (release=T 2.4.3)=T pbc="F F F"
H       14.58842000     -14.42604000      -6.86830000
O       14.42969000     -15.14912000      -6.22721000
H       15.30091000     -15.59668000      -6.11584000
H       13.94756000     -13.88944000      -3.10589000
O       14.64392000     -14.42902000      -3.40478000
H       14.41327000     -14.55023000      -4.32307000
