6
Properties=species:S:1:pos:R:3 frame=T 54=T |=T Written=T by=T MDAnalysis=T XYZWriter=T (release=T 2.4.3)=T pbc="F F F"
H        3.27838000       7.85668000      -2.49086000
O        3.70196000       8.70983000      -2.38569000
H        3.45618000       9.13377000      -3.21013000
H        4.36983000       8.80568000      -0.63354000
O        4.72177000       8.69646000       0.27450000
H        4.73787000       7.69435000       0.34274000
