6
Properties=species:S:1:pos:R:3 frame=T 41=T |=T Written=T by=T MDAnalysis=T XYZWriter=T (release=T 2.4.3)=T pbc="F F F"
H        8.52165000       9.73908000     -11.88443000
O        9.20432000       9.25821000     -11.40951000
H       10.02182000       9.42238000     -11.92108000
H        8.63388000       7.76386000     -10.77650000
O        8.08079000       6.97837000     -10.59726000
H        8.01495000       6.53839000     -11.46644000
