6
Properties=species:S:1:pos:R:3 frame=T 28=T |=T Written=T by=T MDAnalysis=T XYZWriter=T (release=T 2.4.3)=T pbc="F F F"
H        6.85501000       3.43729000      15.90685000
O        7.43138000       2.66990000      15.91432000
H        6.86046000       1.98086000      16.26635000
H        7.15689000       0.50956000      13.10673000
O        7.15463000       0.39236000      14.08639000
H        7.27665000       1.24960000      14.47037000
