6
Properties=species:S:1:pos:R:3 frame=T 7=T |=T Written=T by=T MDAnalysis=T XYZWriter=T (release=T 2.4.3)=T pbc="F F F"
H        3.89543000      18.15510000     -17.82339000
O        3.26990000      17.39964000     -17.73644000
H        2.85789000      17.37281000     -18.59952000
H        2.81438000      14.10448000     -18.35705000
O        3.59399000      14.64671000     -18.19696000
H        3.21866000      15.49185000     -17.90854000
