6
Properties=species:S:1:pos:R:3 frame=T 28=T |=T Written=T by=T MDAnalysis=T XYZWriter=T (release=T 2.4.3)=T pbc="F F F"
H        9.75905000     -12.41267000     -11.50000000
O        9.48668000     -11.52676000     -11.51827000
H        8.75599000     -11.53273000     -10.88062000
H       11.29710000     -10.06115000      -9.47079000
O       11.57064000     -10.09164000     -10.39270000
H       10.83842000     -10.58587000     -10.84305000
