6
Properties=species:S:1:pos:R:3 frame=T 23=T |=T Written=T by=T MDAnalysis=T XYZWriter=T (release=T 2.4.3)=T pbc="F F F"
H      -10.22508000       9.49028000      13.35135000
O      -11.13076000       9.50030000      12.99266000
H      -11.25714000      10.45950000      12.86593000
H      -10.51491000       8.25233000      11.55132000
O      -10.14594000       7.81869000      10.76897000
H      -10.22993000       8.51613000      10.10392000
