6
Properties=species:S:1:pos:R:3 frame=T 24=T |=T Written=T by=T MDAnalysis=T XYZWriter=T (release=T 2.4.3)=T pbc="F F F"
H      -12.64955000       9.55969000      -6.27037000
O      -12.32484000       9.00248000      -5.54683000
H      -13.03560000       9.04699000      -4.92043000
H      -14.49631000       7.65306000      -4.56198000
O      -14.39870000       8.42349000      -3.98151000
H      -14.46605000       8.00217000      -3.11386000
