6
Properties=species:S:1:pos:R:3 frame=T 9=T |=T Written=T by=T MDAnalysis=T XYZWriter=T (release=T 2.4.3)=T pbc="F F F"
H       -9.64293000      10.97185000       4.31628000
O      -10.01124000      11.19565000       3.46154000
H       -9.53894000      10.59753000       2.86212000
H       -9.41301000       8.99321000       1.20453000
O       -8.96380000       9.79201000       1.51226000
H       -9.01118000      10.32142000       0.71079000
