6
Properties=species:S:1:pos:R:3 frame=T 22=T |=T Written=T by=T MDAnalysis=T XYZWriter=T (release=T 2.4.3)=T pbc="F F F"
H       -4.82214000      -1.82699000      -5.01932000
O       -4.99786000      -2.76450000      -5.08931000
H       -5.79107000      -2.87062000      -4.52103000
H       -5.63916000      -5.07016000      -2.44130000
O       -5.10965000      -4.29147000      -2.70101000
H       -5.00341000      -4.55333000      -3.60911000
