6
Properties=species:S:1:pos:R:3 frame=T 42=T |=T Written=T by=T MDAnalysis=T XYZWriter=T (release=T 2.4.3)=T pbc="F F F"
H      -13.02032000     -14.92772000      17.78200000
O      -12.79240000     -15.83424000      17.56819000
H      -11.83361000     -15.81595000      17.71767000
H      -12.80762000     -18.80842000      17.48576000
O      -13.20724000     -18.46982000      16.66684000
H      -13.10445000     -17.51104000      16.72895000
