6
Properties=species:S:1:pos:R:3 frame=T 10=T |=T Written=T by=T MDAnalysis=T XYZWriter=T (release=T 2.4.3)=T pbc="F F F"
H        7.79251000       1.57201000       3.27841000
O        8.33130000       1.41003000       4.05624000
H        8.20695000       0.46369000       4.20778000
H        7.80769000       2.83963000       4.99880000
O        7.50356000       3.73146000       5.27498000
H        7.60413000       4.22609000       4.46770000
