6
Properties=species:S:1:pos:R:3 frame=T 20=T |=T Written=T by=T MDAnalysis=T XYZWriter=T (release=T 2.4.3)=T pbc="F F F"
H       17.97786000       2.89332000      12.58770000
O       17.26915000       3.55348000      12.63934000
H       17.29799000       3.84148000      13.53951000
H       17.57136000       5.76388000      13.16946000
O       17.39198000       6.30094000      13.93640000
H       18.18972000       6.25009000      14.46415000
