6
Properties=species:S:1:pos:R:3 frame=T 24=T |=T Written=T by=T MDAnalysis=T XYZWriter=T (release=T 2.4.3)=T pbc="F F F"
H       -1.24697000      12.14814000       0.98086000
O       -1.15932000      12.85601000       0.32333000
H       -1.89943000      12.69522000      -0.25650000
H       -0.88524000      14.54572000       0.73701000
O       -0.82836000      15.47133000       1.02313000
H        0.12347000      15.55581000       1.22478000
