6
Properties=species:S:1:pos:R:3 frame=T 19=T |=T Written=T by=T MDAnalysis=T XYZWriter=T (release=T 2.4.3)=T pbc="F F F"
H      -12.92521000      15.79028000     -12.95061000
O      -13.53743000      15.98997000     -12.20780000
H      -13.84563000      16.86483000     -12.34402000
H      -14.72444000      14.73161000     -11.59134000
O      -14.95967000      14.04357000     -10.95153000
H      -15.31496000      14.59549000     -10.24865000
