6
Properties=species:S:1:pos:R:3 frame=T 7=T |=T Written=T by=T MDAnalysis=T XYZWriter=T (release=T 2.4.3)=T pbc="F F F"
H       -5.54842000      -7.45150000      11.19695000
O       -6.21490000      -6.80849000      11.49241000
H       -5.70387000      -6.02464000      11.72059000
H       -7.44789000      -7.00343000      10.17707000
O       -8.28784000      -7.11754000       9.69031000
H       -8.27296000      -6.44104000       8.98711000
