6
Properties=species:S:1:pos:R:3 frame=T 34=T |=T Written=T by=T MDAnalysis=T XYZWriter=T (release=T 2.4.3)=T pbc="F F F"
H      -11.40128000      -4.00759000     -14.51154000
O      -11.59995000      -3.57132000     -15.35044000
H      -12.32845000      -3.02181000     -15.11621000
H      -14.01171000      -1.70174000     -14.42720000
O      -13.19317000      -1.21241000     -14.48836000
H      -13.13072000      -0.93338000     -15.41193000
