6
Properties=species:S:1:pos:R:3 frame=T 9=T |=T Written=T by=T MDAnalysis=T XYZWriter=T (release=T 2.4.3)=T pbc="F F F"
H       18.72859000      -3.67017000      -5.59239000
O       18.53683000      -2.71954000      -5.52680000
H       17.64898000      -2.64117000      -5.86900000
H       17.65101000      -2.49370000      -3.84533000
O       17.32195000      -2.25311000      -2.98470000
H       17.94166000      -1.52553000      -2.70571000
