6
Properties=species:S:1:pos:R:3 frame=T 9=T |=T Written=T by=T MDAnalysis=T XYZWriter=T (release=T 2.4.3)=T pbc="F F F"
H        6.72474000     -10.44208000      -6.55835000
O        6.78469000     -10.40981000      -7.52290000
H        7.48986000      -9.76172000      -7.64066000
H        5.67415000      -8.70960000      -6.91630000
O        5.67923000      -7.96279000      -6.29231000
H        6.62811000      -7.80281000      -6.22316000
