6
Properties=species:S:1:pos:R:3 frame=T 36=T |=T Written=T by=T MDAnalysis=T XYZWriter=T (release=T 2.4.3)=T pbc="F F F"
H       13.49200000       2.11733000      -8.19483000
O       13.43100000       1.97665000      -9.15312000
H       12.54813000       1.60304000      -9.27345000
H       14.91841000       0.97202000      -9.32716000
O       15.51202000       0.29177000      -9.59807000
H       16.37045000       0.66270000      -9.39701000
