6
Properties=species:S:1:pos:R:3 frame=T 40=T |=T Written=T by=T MDAnalysis=T XYZWriter=T (release=T 2.4.3)=T pbc="F F F"
H       14.28648000      17.81438000      10.69812000
O       14.00371000      17.64169000      11.59099000
H       13.35302000      16.90135000      11.53275000
H       15.34975000      17.66685000       8.78619000
O       14.51968000      18.18783000       8.87220000
H       14.79095000      19.10344000       8.83399000
