6
Properties=species:S:1:pos:R:3 frame=T 24=T |=T Written=T by=T MDAnalysis=T XYZWriter=T (release=T 2.4.3)=T pbc="F F F"
H        6.59322000       3.12174000      18.61524000
O        5.86649000       2.59947000      18.21836000
H        6.27009000       1.91452000      17.70420000
H       10.31151000       3.21764000      19.12041000
O        9.71541000       3.30224000      18.38893000
H       10.18597000       3.91217000      17.75679000
