6
Properties=species:S:1:pos:R:3 frame=T 8=T |=T Written=T by=T MDAnalysis=T XYZWriter=T (release=T 2.4.3)=T pbc="F F F"
H       -0.67723000      -2.57350000     -18.00614000
O       -1.39154000      -3.22836000     -18.00300000
H       -1.38389000      -3.56205000     -17.07737000
H        3.05135000      -2.89990000     -17.75500000
O        2.73661000      -2.97342000     -18.67176000
H        2.19822000      -3.75381000     -18.67452000
