6
Properties=species:S:1:pos:R:3 frame=T 36=T |=T Written=T by=T MDAnalysis=T XYZWriter=T (release=T 2.4.3)=T pbc="F F F"
H       14.53787000     -19.39457000     -17.84783000
O       14.47917000     -19.08814000     -18.74632000
H       14.14675000     -18.22295000     -18.65606000
H       12.75119000     -14.98460000     -16.17232000
O       13.44350000     -14.83448000     -16.83856000
H       13.40310000     -15.62972000     -17.40546000
