6
Properties=species:S:1:pos:R:3 frame=T 46=T |=T Written=T by=T MDAnalysis=T XYZWriter=T (release=T 2.4.3)=T pbc="F F F"
H      -17.19885000      -6.05255000      10.75063000
O      -16.36503000      -5.69753000      10.44027000
H      -16.51637000      -4.84116000      10.80630000
H      -18.93927000      -8.26315000      11.11843000
O      -18.95731000      -9.24057000      11.11690000
H      -18.18790000      -9.51909000      10.56981000
