6
Properties=species:S:1:pos:R:3 frame=T 35=T |=T Written=T by=T MDAnalysis=T XYZWriter=T (release=T 2.4.3)=T pbc="F F F"
H       17.22263000      12.29988000      14.66477000
O       16.66149000      11.59222000      14.23516000
H       16.83196000      10.80166000      14.72527000
H       17.48732000       9.88861000      17.89734000
O       16.90034000      10.59110000      18.17601000
H       16.20235000      10.10041000      18.59919000
