6
Properties=species:S:1:pos:R:3 frame=T 40=T |=T Written=T by=T MDAnalysis=T XYZWriter=T (release=T 2.4.3)=T pbc="F F F"
H       -5.40666000     -18.39732000      -4.66217000
O       -4.67815000     -17.86390000      -4.37899000
H       -4.48558000     -17.25004000      -5.11304000
H       -6.74368000     -17.70390000      -8.08037000
O       -6.75794000     -18.58854000      -8.45018000
H       -6.69229000     -19.21350000      -7.71765000
