6
Properties=species:S:1:pos:R:3 frame=T 48=T |=T Written=T by=T MDAnalysis=T XYZWriter=T (release=T 2.4.3)=T pbc="F F F"
H       18.16594000     -17.46689000     -12.69425000
O       18.47981000     -18.12794000     -13.32336000
H       17.63686000     -18.40781000     -13.74212000
H       19.03960000     -19.25766000     -16.75952000
O       18.15471000     -18.86943000     -16.77317000
H       18.30740000     -17.97784000     -17.05482000
