6
Properties=species:S:1:pos:R:3 frame=T 43=T |=T Written=T by=T MDAnalysis=T XYZWriter=T (release=T 2.4.3)=T pbc="F F F"
H       16.07080000     -17.70349000      17.36835000
O       16.99974000     -17.91398000      17.14294000
H       16.99897000     -18.80449000      16.76506000
H       18.58788000     -14.53783000      18.26827000
O       18.70351000     -14.87168000      19.16883000
H       19.03920000     -15.78099000      18.98915000
