6
Properties=species:S:1:pos:R:3 frame=T 28=T |=T Written=T by=T MDAnalysis=T XYZWriter=T (release=T 2.4.3)=T pbc="F F F"
H       17.99833000     -10.55061000     -18.13261000
O       17.27947000     -11.17213000     -18.20152000
H       17.21199000     -11.38161000     -19.15182000
H       17.80475000      -5.99672000     -18.30998000
O       17.89695000      -6.80581000     -18.84030000
H       18.28166000      -7.50108000     -18.27024000
