6
Properties=species:S:1:pos:R:3 frame=T 44=T |=T Written=T by=T MDAnalysis=T XYZWriter=T (release=T 2.4.3)=T pbc="F F F"
H      -15.48757000      -7.71195000     -19.05277000
O      -15.68549000      -6.94813000     -18.46838000
H      -16.58916000      -7.09673000     -18.09301000
H      -16.34094000     -11.50285000     -18.23453000
O      -16.81270000     -11.06297000     -18.94460000
H      -16.15605000     -10.39864000     -19.22889000
