6
Properties=species:S:1:pos:R:3 frame=T 48=T |=T Written=T by=T MDAnalysis=T XYZWriter=T (release=T 2.4.3)=T pbc="F F F"
H       16.54399000       2.36615000     -17.68492000
O       15.84215000       1.94295000     -18.19705000
H       15.13732000       1.77702000     -17.57309000
H       19.03556000       3.70300000     -18.09364000
O       18.43245000       4.03996000     -17.41798000
H       19.00018000       4.17498000     -16.67050000
