6
Properties=species:S:1:pos:R:3 frame=T 32=T |=T Written=T by=T MDAnalysis=T XYZWriter=T (release=T 2.4.3)=T pbc="F F F"
H        4.36460000     -17.76986000      12.16833000
O        3.96389000     -16.98648000      11.77282000
H        3.10827000     -17.07334000      12.16557000
H        5.17324000     -18.18937000      14.48111000
O        5.59622000     -17.88872000      15.30906000
H        5.70011000     -18.73947000      15.73783000
