6
Properties=species:S:1:pos:R:3 frame=T 21=T |=T Written=T by=T MDAnalysis=T XYZWriter=T (release=T 2.4.3)=T pbc="F F F"
H       -9.70763000     -16.18604000     -16.06980000
O       -9.76315000     -17.15067000     -16.07837000
H       -9.43295000     -17.36163000     -15.19095000
H       -8.22209000     -18.81301000     -12.23560000
O       -8.62158000     -18.90901000     -13.11525000
H       -7.91108000     -19.12946000     -13.72432000
