6
Properties=species:S:1:pos:R:3 frame=T 23=T |=T Written=T by=T MDAnalysis=T XYZWriter=T (release=T 2.4.3)=T pbc="F F F"
H       -6.09235000     -14.33019000      12.93361000
O       -5.77193000     -13.96874000      12.09285000
H       -6.22937000     -14.55527000      11.47017000
H       -3.81293000     -13.42257000      11.25659000
O       -3.17758000     -12.76999000      11.03112000
H       -2.34957000     -13.26326000      11.13875000
