6
Properties=species:S:1:pos:R:3 frame=T 54=T |=T Written=T by=T MDAnalysis=T XYZWriter=T (release=T 2.4.3)=T pbc="F F F"
H      -11.16545000      17.63123000      16.00768000
O      -10.79070000      16.85611000      15.55979000
H      -11.54882000      16.49498000      15.03497000
H       -9.03877000      15.59137000      15.93911000
O       -8.18488000      15.26608000      16.23716000
H       -7.57724000      16.02540000      16.11032000
