6
Properties=species:S:1:pos:R:3 frame=T 50=T |=T Written=T by=T MDAnalysis=T XYZWriter=T (release=T 2.4.3)=T pbc="F F F"
H       16.73979000       1.24414000       7.08649000
O       15.92759000       1.55116000       6.68680000
H       15.38789000       0.75231000       6.59644000
H       17.22306000      -0.44337000       8.75275000
O       16.29094000      -0.30206000       8.94896000
H       15.90622000      -0.49654000       8.07335000
