6
Properties=species:S:1:pos:R:3 frame=T 54=T |=T Written=T by=T MDAnalysis=T XYZWriter=T (release=T 2.4.3)=T pbc="F F F"
H       -3.90496000     -13.91439000     -10.89568000
O       -3.53145000     -14.38040000     -10.12970000
H       -2.75005000     -13.93026000      -9.90397000
H       -5.33789000     -15.00066000      -7.08257000
O       -5.33157000     -15.60803000      -7.81274000
H       -4.77771000     -15.15484000      -8.44805000
