6
Properties=species:S:1:pos:R:3 frame=T 46=T |=T Written=T by=T MDAnalysis=T XYZWriter=T (release=T 2.4.3)=T pbc="F F F"
H      -18.27749000      13.58700000     -10.85344000
O      -18.07929000      13.05582000     -10.08407000
H      -17.62292000      13.66861000      -9.50174000
H      -15.97287000      14.28175000     -10.52475000
O      -15.79946000      15.20639000     -10.60780000
H      -16.54782000      15.48475000     -11.17063000
