6
Properties=species:S:1:pos:R:3 frame=T 31=T |=T Written=T by=T MDAnalysis=T XYZWriter=T (release=T 2.4.3)=T pbc="F F F"
H        3.94646000     -16.91372000      10.25151000
O        4.17948000     -16.37607000       9.45964000
H        3.44462000     -16.54012000       8.85406000
H        3.69341000     -19.28665000      10.19778000
O        2.98218000     -19.34003000       9.52745000
H        2.92972000     -18.42844000       9.18141000
