6
Properties=species:S:1:pos:R:3 frame=T 44=T |=T Written=T by=T MDAnalysis=T XYZWriter=T (release=T 2.4.3)=T pbc="F F F"
H      -18.07582000      18.85979000      -7.56072000
O      -18.03167000      18.03812000      -8.08030000
H      -17.10229000      18.02370000      -8.32938000
H      -14.58866000      16.83212000      -9.43170000
O      -15.45118000      17.23868000      -9.65092000
H      -15.88526000      16.52031000     -10.13849000
