6
Properties=species:S:1:pos:R:3 frame=T 53=T |=T Written=T by=T MDAnalysis=T XYZWriter=T (release=T 2.4.3)=T pbc="F F F"
H        7.23961000      -4.04438000      -4.08320000
O        7.25555000      -3.34048000      -3.41290000
H        7.47436000      -2.56985000      -3.93953000
H        8.89692000      -3.32297000      -3.30932000
O        9.74870000      -2.89801000      -3.11882000
H        9.55509000      -2.36433000      -2.35050000
