6
Properties=species:S:1:pos:R:3 frame=T 42=T |=T Written=T by=T MDAnalysis=T XYZWriter=T (release=T 2.4.3)=T pbc="F F F"
H      -15.64154000     -12.89450000      -2.24907000
O      -14.86115000     -13.41232000      -2.02958000
H      -14.30029000     -13.28740000      -2.78430000
H      -16.16363000     -14.74079000      -2.85045000
O      -17.10301000     -14.77049000      -3.10149000
H      -17.36855000     -13.86690000      -3.09899000
