6
Properties=species:S:1:pos:R:3 frame=T 15=T |=T Written=T by=T MDAnalysis=T XYZWriter=T (release=T 2.4.3)=T pbc="F F F"
H        2.17242000     -17.48749000      -6.90509000
O        2.31237000     -16.81270000      -7.59624000
H        1.37682000     -16.53606000      -7.77727000
H        2.58616000     -16.12687000     -10.88607000
O        3.49983000     -16.19649000     -10.59958000
H        3.39711000     -16.31363000      -9.64651000
