6
Properties=species:S:1:pos:R:3 frame=T 8=T |=T Written=T by=T MDAnalysis=T XYZWriter=T (release=T 2.4.3)=T pbc="F F F"
H       16.97599000      17.84170000      -1.75665000
O       17.46802000      18.15895000      -2.52089000
H       16.78751000      18.70117000      -2.92889000
H       18.05779000      17.41885000       0.35210000
O       18.96998000      17.68347000       0.10212000
H       19.57138000      16.94516000       0.27498000
