6
Properties=species:S:1:pos:R:3 frame=T 0=T |=T Written=T by=T MDAnalysis=T XYZWriter=T (release=T 2.4.3)=T pbc="F F F"
H       11.10822000     -10.06651000      -6.75973000
O       10.66834000     -10.84392000      -7.07056000
H       11.36096000     -11.20103000      -7.66384000
H       11.83701000     -12.54399000      -5.60332000
O       12.59417000     -12.05085000      -5.30374000
H       12.26946000     -11.13689000      -5.36213000
