6
Properties=species:S:1:pos:R:3 frame=T 34=T |=T Written=T by=T MDAnalysis=T XYZWriter=T (release=T 2.4.3)=T pbc="F F F"
H      -16.70179000       9.54068000      -3.91147000
O      -17.52370000       9.66491000      -4.41721000
H      -18.10276000      10.22537000      -3.91958000
H      -14.76441000       9.50283000      -3.71413000
O      -15.34054000       9.61737000      -2.96662000
H      -15.63427000      10.52625000      -3.07013000
