6
Properties=species:S:1:pos:R:3 frame=T 21=T |=T Written=T by=T MDAnalysis=T XYZWriter=T (release=T 2.4.3)=T pbc="F F F"
H       -6.08380000      -8.85355000      -2.85368000
O       -5.14741000      -8.78540000      -2.70094000
H       -4.82281000      -9.62864000      -3.06458000
H       -3.45093000     -12.02953000      -2.93337000
O       -4.38520000     -11.78221000      -2.85099000
H       -4.79215000     -12.60884000      -3.15313000
