6
Properties=species:S:1:pos:R:3 frame=T 32=T |=T Written=T by=T MDAnalysis=T XYZWriter=T (release=T 2.4.3)=T pbc="F F F"
H       -7.12661000       1.86416000       0.17840000
O       -7.72594000       1.98691000      -0.57326000
H       -7.11633000       1.99810000      -1.30974000
H       -7.35517000       4.44301000      -0.27381000
O       -8.27837000       4.49052000      -0.01391000
H       -8.56426000       3.62800000      -0.25727000
