6
Properties=species:S:1:pos:R:3 frame=T 42=T |=T Written=T by=T MDAnalysis=T XYZWriter=T (release=T 2.4.3)=T pbc="F F F"
H       13.54946000      -6.27153000     -19.05851000
O       14.41897000      -6.07174000     -18.70284000
H       14.11227000      -5.56122000     -17.94551000
H       12.15945000      -5.16850000     -17.41184000
O       12.79631000      -4.51225000     -17.07521000
H       13.15034000      -4.95023000     -16.29033000
