6
Properties=species:S:1:pos:R:3 frame=T 40=T |=T Written=T by=T MDAnalysis=T XYZWriter=T (release=T 2.4.3)=T pbc="F F F"
H       -4.63026000       9.71913000      17.29003000
O       -4.15211000       9.54612000      18.12484000
H       -4.85644000       9.11178000      18.63880000
H       -2.20054000      10.27643000      18.80148000
O       -1.32542000       9.98753000      19.07897000
H       -0.79567000      10.13586000      18.30509000
