6
Properties=species:S:1:pos:R:3 frame=T 18=T |=T Written=T by=T MDAnalysis=T XYZWriter=T (release=T 2.4.3)=T pbc="F F F"
H      -10.34064000      -5.98947000      -3.99478000
O      -10.15167000      -5.92782000      -4.94787000
H      -10.70917000      -5.15011000      -5.13500000
H      -11.29640000      -6.88194000      -5.70511000
O      -12.11238000      -7.40289000      -5.87520000
H      -12.66957000      -7.15958000      -5.13894000
