6
Properties=species:S:1:pos:R:3 frame=T 7=T |=T Written=T by=T MDAnalysis=T XYZWriter=T (release=T 2.4.3)=T pbc="F F F"
H       -0.48911000      11.13059000      14.47338000
O       -0.70969000      10.20506000      14.28592000
H       -0.63702000       9.73082000      15.14149000
H       -3.20801000      10.74076000      15.22922000
O       -3.25734000      10.26559000      14.39312000
H       -2.32880000      10.10783000      14.14682000
