6
Properties=species:S:1:pos:R:3 frame=T 41=T |=T Written=T by=T MDAnalysis=T XYZWriter=T (release=T 2.4.3)=T pbc="F F F"
H        2.98087000       0.25669000      12.82283000
O        2.51275000       1.07414000      12.61730000
H        1.88404000       0.87427000      11.92556000
H        2.78283000      -1.63627000      14.53455000
O        1.87830000      -1.74499000      14.19722000
H        1.93183000      -2.52121000      13.64618000
