6
Properties=species:S:1:pos:R:3 frame=T 13=T |=T Written=T by=T MDAnalysis=T XYZWriter=T (release=T 2.4.3)=T pbc="F F F"
H      -16.49063000     -16.26725000      -8.28363000
O      -16.66495000     -16.70635000      -9.13373000
H      -16.25319000     -17.57439000      -8.99165000
H      -17.75800000     -17.80176000      -6.48128000
O      -17.63556000     -17.35244000      -5.67205000
H      -16.68682000     -17.16119000      -5.66658000
