6
Properties=species:S:1:pos:R:3 frame=T 47=T |=T Written=T by=T MDAnalysis=T XYZWriter=T (release=T 2.4.3)=T pbc="F F F"
H       -9.31865000      13.82912000       8.04273000
O      -10.09382000      13.54976000       8.52403000
H      -10.41123000      14.32118000       9.01043000
H      -11.19397000      11.70474000       7.25282000
O      -10.94587000      11.14231000       6.50372000
H      -10.40155000      11.73016000       5.94588000
