6
Properties=species:S:1:pos:R:3 frame=T 33=T |=T Written=T by=T MDAnalysis=T XYZWriter=T (release=T 2.4.3)=T pbc="F F F"
H      -14.53033000      13.40825000      -3.31902000
O      -14.28119000      14.34033000      -3.17272000
H      -13.58764000      14.54035000      -3.79216000
H      -13.59092000      13.48592000      -2.04977000
O      -13.30924000      12.91491000      -1.31061000
H      -14.02871000      13.00284000      -0.68591000
