6
Properties=species:S:1:pos:R:3 frame=T 38=T |=T Written=T by=T MDAnalysis=T XYZWriter=T (release=T 2.4.3)=T pbc="F F F"
H      -14.73740000      13.72331000     -19.05790000
O      -15.63434000      13.64829000     -18.75134000
H      -15.54734000      13.58762000     -17.78988000
H      -12.34337000      12.87877000     -17.40432000
O      -13.09676000      13.14029000     -16.86338000
H      -13.09210000      12.50218000     -16.14791000
