6
Properties=species:S:1:pos:R:3 frame=T 52=T |=T Written=T by=T MDAnalysis=T XYZWriter=T (release=T 2.4.3)=T pbc="F F F"
H      -19.27693000      -0.83397000     -11.32064000
O      -18.65814000      -0.93301000     -12.07477000
H      -18.65210000      -1.88650000     -12.25512000
H      -16.25649000       1.81060000     -11.91728000
O      -17.04286000       1.52607000     -12.41036000
H      -17.06424000       0.58368000     -12.26455000
