6
Properties=species:S:1:pos:R:3 frame=T 33=T |=T Written=T by=T MDAnalysis=T XYZWriter=T (release=T 2.4.3)=T pbc="F F F"
H        9.71352000      17.52074000     -11.92065000
O        9.36387000      17.77718000     -12.77745000
H        9.30569000      18.70475000     -12.66865000
H       10.00679000      14.99776000     -15.03194000
O        9.33829000      15.65660000     -14.83969000
H        9.78984000      16.15133000     -14.15199000
