6
Properties=species:S:1:pos:R:3 frame=T 33=T |=T Written=T by=T MDAnalysis=T XYZWriter=T (release=T 2.4.3)=T pbc="F F F"
H        7.18536000     -10.77236000     -12.85391000
O        6.64002000     -10.31766000     -13.50610000
H        6.35855000      -9.52314000     -13.00807000
H        6.12406000     -11.19827000     -11.34681000
O        6.94453000     -11.64064000     -11.08765000
H        6.97040000     -12.50761000     -11.58863000
