6
Properties=species:S:1:pos:R:3 frame=T 29=T |=T Written=T by=T MDAnalysis=T XYZWriter=T (release=T 2.4.3)=T pbc="F F F"
H        2.66956000       0.83973000      -6.96907000
O        2.46137000       1.64799000      -6.48861000
H        3.26936000       2.18023000      -6.58151000
H        4.63502000       2.60654000      -7.87101000
O        4.87341000       2.72251000      -6.94636000
H        5.34050000       1.89801000      -6.69528000
