6
Properties=species:S:1:pos:R:3 frame=T 43=T |=T Written=T by=T MDAnalysis=T XYZWriter=T (release=T 2.4.3)=T pbc="F F F"
H      -12.72980000     -16.58095000      18.07205000
O      -12.50821000     -16.11152000      18.88458000
H      -13.36640000     -15.83986000      19.26274000
H      -12.30632000     -17.45363000      15.82642000
O      -12.07956000     -17.34482000      14.89223000
H      -12.52347000     -16.52949000      14.69119000
