6
Properties=species:S:1:pos:R:3 frame=T 24=T |=T Written=T by=T MDAnalysis=T XYZWriter=T (release=T 2.4.3)=T pbc="F F F"
H        5.05893000      18.72513000       0.58320000
O        5.28592000      18.52666000      -0.33388000
H        5.86292000      17.75937000      -0.36754000
H        8.68614000      18.73205000      -0.29382000
O        8.34342000      18.79064000       0.61231000
H        9.13787000      18.83316000       1.18105000
