6
Properties=species:S:1:pos:R:3 frame=T 12=T |=T Written=T by=T MDAnalysis=T XYZWriter=T (release=T 2.4.3)=T pbc="F F F"
H       16.45275000      -9.41707000       3.82181000
O       16.57247000     -10.26690000       3.42793000
H       16.06446000     -10.18412000       2.62348000
H       14.62896000      -8.96304000       2.34685000
O       13.96957000      -9.32911000       2.97482000
H       14.47446000      -9.50441000       3.78215000
