6
Properties=species:S:1:pos:R:3 frame=T 16=T |=T Written=T by=T MDAnalysis=T XYZWriter=T (release=T 2.4.3)=T pbc="F F F"
H       -6.36706000      18.15000000     -15.97194000
O       -6.61277000      17.49869000     -15.32028000
H       -7.57735000      17.34621000     -15.53636000
H       -9.95174000      15.78781000     -16.76722000
O       -9.68304000      16.72788000     -16.81528000
H      -10.08175000      17.04138000     -17.63735000
