6
Properties=species:S:1:pos:R:3 frame=T 41=T |=T Written=T by=T MDAnalysis=T XYZWriter=T (release=T 2.4.3)=T pbc="F F F"
H       15.72387000      14.69202000     -18.20998000
O       16.37757000      15.17251000     -17.68703000
H       16.92931000      15.48250000     -18.41548000
H       16.73349000      11.78734000     -17.49564000
O       16.79682000      11.55393000     -18.43279000
H       17.57147000      11.99133000     -18.76496000
