6
Properties=species:S:1:pos:R:3 frame=T 16=T |=T Written=T by=T MDAnalysis=T XYZWriter=T (release=T 2.4.3)=T pbc="F F F"
H        9.18967000      14.21498000     -13.78907000
O        8.66417000      14.88733000     -13.33488000
H        8.83458000      15.71251000     -13.81421000
H       11.12983000      13.53350000     -13.73377000
O       10.73104000      13.71874000     -14.59610000
H       10.92971000      14.65120000     -14.72477000
