6
Properties=species:S:1:pos:R:3 frame=T 16=T |=T Written=T by=T MDAnalysis=T XYZWriter=T (release=T 2.4.3)=T pbc="F F F"
H        5.85551000      -4.32839000       8.17860000
O        6.09884000      -5.10543000       8.66361000
H        6.20183000      -4.72207000       9.54763000
H        8.67848000      -4.72308000      10.76365000
O        7.83294000      -5.13919000      11.02395000
H        7.96613000      -5.35867000      11.94202000
