6
Properties=species:S:1:pos:R:3 frame=T 13=T |=T Written=T by=T MDAnalysis=T XYZWriter=T (release=T 2.4.3)=T pbc="F F F"
H       -7.98253000      18.81178000     -18.96596000
O       -8.84196000      18.42543000     -18.86316000
H       -9.36513000      19.00980000     -18.32745000
H       -8.72871000      18.26506000     -15.06103000
O       -8.55645000      19.12422000     -15.44661000
H       -7.86953000      18.91976000     -16.12803000
