6
Properties=species:S:1:pos:R:3 frame=T 51=T |=T Written=T by=T MDAnalysis=T XYZWriter=T (release=T 2.4.3)=T pbc="F F F"
H       -4.07163000      16.72403000      -8.60937000
O       -3.48574000      16.50405000      -7.89428000
H       -3.96256000      16.95584000      -7.18598000
H       -2.97886000      18.31998000      -6.15333000
O       -3.84580000      18.04229000      -5.86368000
H       -4.41113000      18.55513000      -6.45180000
