6
Properties=species:S:1:pos:R:3 frame=T 46=T |=T Written=T by=T MDAnalysis=T XYZWriter=T (release=T 2.4.3)=T pbc="F F F"
H       -3.65585000       7.23922000       5.08424000
O       -3.94517000       8.00619000       4.64554000
H       -3.91964000       8.69548000       5.34345000
H       -1.87324000       8.64137000       4.28661000
O       -1.10393000       8.85116000       4.82802000
H       -1.53276000       8.99155000       5.69146000
