6
Properties=species:S:1:pos:R:3 frame=T 33=T |=T Written=T by=T MDAnalysis=T XYZWriter=T (release=T 2.4.3)=T pbc="F F F"
H        9.81853000       3.07891000      -5.55970000
O        9.07638000       3.35446000      -4.98820000
H        9.35961000       2.99812000      -4.13248000
H        9.93202000       5.27385000      -4.57440000
O       10.71329000       5.65540000      -5.03256000
H       11.21540000       4.88301000      -5.27825000
