6
Properties=species:S:1:pos:R:3 frame=T 1=T |=T Written=T by=T MDAnalysis=T XYZWriter=T (release=T 2.4.3)=T pbc="F F F"
H      -18.78265000      17.36723000      -6.31933000
O      -17.86902000      17.24294000      -6.02474000
H      -17.41861000      17.98454000      -6.44776000
H      -17.31047000      16.68143000      -8.69455000
O      -17.58285000      17.53863000      -9.09545000
H      -18.39764000      17.75362000      -8.60192000
