6
Properties=species:S:1:pos:R:3 frame=T 42=T |=T Written=T by=T MDAnalysis=T XYZWriter=T (release=T 2.4.3)=T pbc="F F F"
H       -8.50942000      -7.23617000      -6.54951000
O       -9.18378000      -7.49421000      -7.19519000
H       -9.62389000      -8.23917000      -6.76331000
H      -10.17645000      -6.49032000      -6.09503000
O      -10.41829000      -6.07787000      -5.24700000
H       -9.74615000      -5.38471000      -5.15882000
