6
Properties=species:S:1:pos:R:3 frame=T 19=T |=T Written=T by=T MDAnalysis=T XYZWriter=T (release=T 2.4.3)=T pbc="F F F"
H      -11.60778000       2.62743000       1.73174000
O      -10.74259000       2.25322000       1.44612000
H      -10.47331000       2.77589000       0.68541000
H      -10.25761000       0.06693000       1.46784000
O      -10.06140000      -0.63271000       2.07570000
H       -9.10550000      -0.70115000       1.98568000
