6
Properties=species:S:1:pos:R:3 frame=T 50=T |=T Written=T by=T MDAnalysis=T XYZWriter=T (release=T 2.4.3)=T pbc="F F F"
H        3.18760000     -11.29401000     -15.59800000
O        3.64415000     -11.11889000     -14.76840000
H        3.17217000     -10.38394000     -14.38139000
H        1.11044000     -11.91758000     -13.37910000
O        1.60100000     -12.54751000     -13.96347000
H        2.46375000     -12.19066000     -14.05188000
