6
Properties=species:S:1:pos:R:3 frame=T 26=T |=T Written=T by=T MDAnalysis=T XYZWriter=T (release=T 2.4.3)=T pbc="F F F"
H        6.27272000       3.39301000       9.43145000
O        6.93187000       3.57354000       8.75964000
H        6.40882000       3.61578000       7.98387000
H        5.63287000       3.60530000      12.42302000
O        5.27023000       3.75206000      11.55946000
H        4.96268000       2.87226000      11.38776000
