6
Properties=species:S:1:pos:R:3 frame=T 24=T |=T Written=T by=T MDAnalysis=T XYZWriter=T (release=T 2.4.3)=T pbc="F F F"
H        5.64869000       1.40889000       7.21585000
O        5.96203000       0.81390000       6.50878000
H        6.09341000       1.41114000       5.74828000
H        6.04307000       0.82717000       2.96716000
O        5.76031000       1.48194000       3.62402000
H        5.58236000       2.27417000       3.07668000
