6
Properties=species:S:1:pos:R:3 frame=T 45=T |=T Written=T by=T MDAnalysis=T XYZWriter=T (release=T 2.4.3)=T pbc="F F F"
H       -9.27034000      13.26684000      12.01577000
O       -9.13643000      12.47670000      11.46547000
H       -8.43252000      11.99798000      11.93459000
H       -9.05058000      15.00010000      12.38544000
O       -8.99244000      14.61172000      13.29005000
H       -8.07612000      14.25417000      13.34857000
