6
Properties=species:S:1:pos:R:3 frame=T 36=T |=T Written=T by=T MDAnalysis=T XYZWriter=T (release=T 2.4.3)=T pbc="F F F"
H       14.07821000      -1.41640000      -2.29626000
O       14.69546000      -1.27400000      -3.00949000
H       14.95695000      -0.34453000      -2.88116000
H       15.52467000       1.82300000      -2.51786000
O       15.89196000       0.96099000      -2.70815000
H       15.66858000       0.46493000      -1.91598000
