6
Properties=species:S:1:pos:R:3 frame=T 14=T |=T Written=T by=T MDAnalysis=T XYZWriter=T (release=T 2.4.3)=T pbc="F F F"
H      -18.93550000      -8.96656000      13.33533000
O      -18.30320000      -8.26525000      13.52182000
H      -17.95408000      -8.47857000      14.41166000
H      -15.77863000      -5.79337000      12.81563000
O      -16.67994000      -5.59695000      13.11740000
H      -16.98819000      -6.42557000      13.46950000
