6
Properties=species:S:1:pos:R:3 frame=T 23=T |=T Written=T by=T MDAnalysis=T XYZWriter=T (release=T 2.4.3)=T pbc="F F F"
H       12.28871000       7.23923000      -2.71396000
O       12.12913000       6.35867000      -2.39982000
H       12.79434000       5.75420000      -2.78599000
H       15.22565000       8.18511000      -3.43010000
O       14.27846000       8.36032000      -3.29465000
H       14.25607000       9.28809000      -3.11375000
