6
Properties=species:S:1:pos:R:3 frame=T 17=T |=T Written=T by=T MDAnalysis=T XYZWriter=T (release=T 2.4.3)=T pbc="F F F"
H       -5.73707000       4.85140000     -11.71057000
O       -5.32620000       4.76473000     -12.59970000
H       -6.08578000       4.96042000     -13.10889000
H       -7.40630000       7.06567000     -12.91885000
O       -6.88468000       7.28579000     -12.13628000
H       -6.01251000       6.92382000     -12.40560000
