6
Properties=species:S:1:pos:R:3 frame=T 50=T |=T Written=T by=T MDAnalysis=T XYZWriter=T (release=T 2.4.3)=T pbc="F F F"
H       15.03205000      -7.94237000       9.07287000
O       14.91460000      -8.57801000       8.35739000
H       14.19288000      -8.18284000       7.83628000
H       16.28515000      -9.00975000      11.17433000
O       16.18103000      -8.08517000      11.00603000
H       17.01391000      -7.72631000      11.36053000
