6
Properties=species:S:1:pos:R:3 frame=T 49=T |=T Written=T by=T MDAnalysis=T XYZWriter=T (release=T 2.4.3)=T pbc="F F F"
H        8.64573000      10.34016000     -16.29960000
O        7.89576000       9.76026000     -16.17530000
H        8.00166000       9.07282000     -16.83836000
H        9.49795000       7.70537000     -17.85342000
O        9.61410000       7.79658000     -18.81321000
H        8.90592000       7.24243000     -19.15644000
