6
Properties=species:S:1:pos:R:3 frame=T 33=T |=T Written=T by=T MDAnalysis=T XYZWriter=T (release=T 2.4.3)=T pbc="F F F"
H       18.59306000      13.87183000      12.86259000
O       18.17420000      14.47466000      12.21793000
H       18.93294000      14.87949000      11.77648000
H       17.12391000      14.58737000      15.87189000
O       17.59876000      15.32700000      15.48215000
H       18.32201000      14.93474000      14.94559000
