6
Properties=species:S:1:pos:R:3 frame=T 36=T |=T Written=T by=T MDAnalysis=T XYZWriter=T (release=T 2.4.3)=T pbc="F F F"
H       -3.78350000      -6.18654000      16.73181000
O       -4.04981000      -6.34826000      17.63400000
H       -3.48256000      -7.07595000      17.90421000
H       -3.05236000      -5.04555000      18.09372000
O       -2.31071000      -4.58931000      18.52765000
H       -1.56768000      -5.14192000      18.40358000
