6
Properties=species:S:1:pos:R:3 frame=T 28=T |=T Written=T by=T MDAnalysis=T XYZWriter=T (release=T 2.4.3)=T pbc="F F F"
H        2.52454000       5.84405000       5.99275000
O        2.73234000       5.52293000       5.11330000
H        3.27915000       6.20330000       4.74293000
H        3.41478000       8.09136000       5.16557000
O        2.94657000       8.38193000       5.94864000
H        3.53042000       8.08999000       6.67526000
