6
Properties=species:S:1:pos:R:3 frame=T 29=T |=T Written=T by=T MDAnalysis=T XYZWriter=T (release=T 2.4.3)=T pbc="F F F"
H       10.09511000      -1.75911000      -9.17190000
O       10.55763000      -2.12558000      -9.97428000
H       10.90256000      -2.95918000      -9.64286000
H       10.46950000      -4.65207000     -12.78117000
O       10.42615000      -3.66759000     -12.83579000
H       10.35762000      -3.39622000     -11.90767000
