6
Properties=species:S:1:pos:R:3 frame=T 14=T |=T Written=T by=T MDAnalysis=T XYZWriter=T (release=T 2.4.3)=T pbc="F F F"
H       10.15801000      14.09503000     -17.00803000
O        9.92811000      13.16282000     -17.01893000
H        8.99257000      13.18120000     -16.76119000
H       12.13984000      12.43036000     -15.80689000
O       12.27151000      11.60619000     -15.32131000
H       11.35699000      11.32259000     -15.28752000
