6
Properties=species:S:1:pos:R:3 frame=T 36=T |=T Written=T by=T MDAnalysis=T XYZWriter=T (release=T 2.4.3)=T pbc="F F F"
H        4.98162000      18.68380000      -9.07886000
O        5.88966000      18.96174000      -8.97212000
H        6.11327000      18.79721000      -8.05708000
H        6.92828000      16.11168000      -8.18296000
O        7.57308000      16.79725000      -7.92147000
H        8.39271000      16.31459000      -7.99689000
