6
Properties=species:S:1:pos:R:3 frame=T 45=T |=T Written=T by=T MDAnalysis=T XYZWriter=T (release=T 2.4.3)=T pbc="F F F"
H       -5.62933000     -15.54931000     -11.53657000
O       -4.74128000     -15.72328000     -11.94697000
H       -4.83489000     -15.45360000     -12.86047000
H       -4.80941000     -14.86108000     -15.41766000
O       -4.59628000     -15.77895000     -15.17124000
H       -5.30905000     -16.27200000     -15.60765000
