6
Properties=species:S:1:pos:R:3 frame=T 4=T |=T Written=T by=T MDAnalysis=T XYZWriter=T (release=T 2.4.3)=T pbc="F F F"
H       14.55207000      18.61172000      15.83904000
O       14.75107000      18.49176000      16.76171000
H       14.40488000      19.33013000      17.11928000
H       16.57199000      17.93122000      17.81103000
O       17.45471000      18.09612000      18.12075000
H       17.81931000      17.23524000      18.31150000
