6
Properties=species:S:1:pos:R:3 frame=T 42=T |=T Written=T by=T MDAnalysis=T XYZWriter=T (release=T 2.4.3)=T pbc="F F F"
H        7.07073000      10.21858000      -9.51278000
O        6.85478000       9.94403000     -10.39562000
H        5.99400000      10.39890000     -10.54735000
H        5.64319000      11.77910000      -9.52302000
O        5.16676000      11.39688000      -8.78529000
H        5.85691000      11.00223000      -8.23011000
