6
Properties=species:S:1:pos:R:3 frame=T 46=T |=T Written=T by=T MDAnalysis=T XYZWriter=T (release=T 2.4.3)=T pbc="F F F"
H       -8.78776000      15.56209000      17.15686000
O       -8.37101000      14.74120000      17.41811000
H       -8.62634000      14.69672000      18.33380000
H      -10.86485000      13.14724000      17.75245000
O      -11.47215000      13.23986000      17.00628000
H      -11.75329000      12.32399000      16.91361000
