6
Properties=species:S:1:pos:R:3 frame=T 50=T |=T Written=T by=T MDAnalysis=T XYZWriter=T (release=T 2.4.3)=T pbc="F F F"
H       11.29039000       7.18332000      -4.73377000
O       11.18033000       8.09784000      -4.41282000
H       11.45043000       8.68402000      -5.10681000
H        9.88409000      11.65416000      -2.63965000
O        9.71114000      11.00361000      -3.30234000
H       10.40720000      10.36434000      -3.23055000
