6
Properties=species:S:1:pos:R:3 frame=T 3=T |=T Written=T by=T MDAnalysis=T XYZWriter=T (release=T 2.4.3)=T pbc="F F F"
H       14.97929000      -0.98220000      15.28178000
O       15.63578000      -0.27245000      15.45413000
H       16.15285000      -0.26113000      14.65556000
H       15.99749000       1.01694000      17.16662000
O       16.10513000       1.25469000      18.09681000
H       17.01214000       0.93495000      18.27016000
