6
Properties=species:S:1:pos:R:3 frame=T 10=T |=T Written=T by=T MDAnalysis=T XYZWriter=T (release=T 2.4.3)=T pbc="F F F"
H       15.76229000     -15.71913000      14.26200000
O       16.54233000     -15.90111000      14.74831000
H       16.42263000     -15.34510000      15.53269000
H       17.74521000     -14.10380000      13.49514000
O       17.79172000     -14.77973000      12.78707000
H       17.78143000     -15.58347000      13.34681000
