6
Properties=species:S:1:pos:R:3 frame=T 37=T |=T Written=T by=T MDAnalysis=T XYZWriter=T (release=T 2.4.3)=T pbc="F F F"
H       17.04356000       0.55657000      -5.42257000
O       17.01783000       1.17272000      -6.16344000
H       16.14874000       1.62245000      -6.15206000
H       17.73612000       2.38326000      -5.14064000
O       17.81087000       3.17558000      -4.57630000
H       17.06714000       3.12563000      -3.98011000
