6
Properties=species:S:1:pos:R:3 frame=T 47=T |=T Written=T by=T MDAnalysis=T XYZWriter=T (release=T 2.4.3)=T pbc="F F F"
H       11.02165000      18.79062000       0.36488000
O       11.18158000      18.50250000      -0.54781000
H       10.71415000      19.19424000      -1.06847000
H        9.50027000      16.44897000       2.62161000
O        9.80159000      16.82850000       1.79624000
H       10.29621000      17.63144000       2.00978000
