6
Properties=species:S:1:pos:R:3 frame=T 16=T |=T Written=T by=T MDAnalysis=T XYZWriter=T (release=T 2.4.3)=T pbc="F F F"
H       -9.36196000      -8.07745000      -7.62113000
O       -9.33367000      -7.65611000      -6.75767000
H       -8.85605000      -8.28163000      -6.21539000
H      -10.67292000     -11.22278000      -6.16472000
O      -10.75868000     -10.62197000      -5.45685000
H       -9.93280000     -10.16986000      -5.40693000
