6
Properties=species:S:1:pos:R:3 frame=T 35=T |=T Written=T by=T MDAnalysis=T XYZWriter=T (release=T 2.4.3)=T pbc="F F F"
H       17.01288000     -16.92346000       9.24405000
O       16.23271000     -16.40024000       9.06132000
H       16.13555000     -15.86627000       9.85849000
H       17.22234000     -17.30599000      11.74277000
O       16.57806000     -18.02150000      11.80668000
H       15.72810000     -17.73178000      11.53198000
