6
Properties=species:S:1:pos:R:3 frame=T 12=T |=T Written=T by=T MDAnalysis=T XYZWriter=T (release=T 2.4.3)=T pbc="F F F"
H       -0.28854000     -15.00709000       7.62641000
O       -0.17155000     -15.96331000       7.65965000
H       -0.86457000     -16.28581000       7.06366000
H        0.57576000     -13.08615000       9.23606000
O       -0.02875000     -13.05696000       8.47911000
H        0.01464000     -12.13850000       8.27173000
