6
Properties=species:S:1:pos:R:3 frame=T 46=T |=T Written=T by=T MDAnalysis=T XYZWriter=T (release=T 2.4.3)=T pbc="F F F"
H       18.96860000      -2.24094000      15.84554000
O       18.06568000      -2.55878000      15.60574000
H       17.72056000      -2.01561000      14.87914000
H       18.43315000      -4.51950000      15.13979000
O       18.43831000      -4.82537000      14.25515000
H       18.54264000      -3.98933000      13.77387000
