6
Properties=species:S:1:pos:R:3 frame=T 28=T |=T Written=T by=T MDAnalysis=T XYZWriter=T (release=T 2.4.3)=T pbc="F F F"
H        6.04409000     -14.39000000      -6.80074000
O        5.45818000     -15.04120000      -7.20303000
H        4.56924000     -14.72917000      -7.02032000
H        4.33104000     -14.49587000      -4.40785000
O        4.02790000     -13.61523000      -4.72590000
H        4.62359000     -13.45283000      -5.47024000
