6
Properties=species:S:1:pos:R:3 frame=T 27=T |=T Written=T by=T MDAnalysis=T XYZWriter=T (release=T 2.4.3)=T pbc="F F F"
H      -16.60419000      -1.24672000     -12.91596000
O      -15.65742000      -1.18943000     -12.84391000
H      -15.49201000      -0.26837000     -13.08607000
H      -16.69465000      -3.31125000     -11.94064000
O      -16.68346000      -3.63776000     -11.01712000
H      -15.90514000      -4.19508000     -11.01021000
