6
Properties=species:S:1:pos:R:3 frame=T 1=T |=T Written=T by=T MDAnalysis=T XYZWriter=T (release=T 2.4.3)=T pbc="F F F"
H       -0.32039000       1.78999000      -5.83181000
O        0.58042000       2.11812000      -6.02857000
H        0.59397000       2.27156000      -6.98031000
H        0.98763000      -0.40491000      -6.59708000
O        1.38716000      -0.49434000      -5.70492000
H        1.41499000       0.45044000      -5.39379000
