6
Properties=species:S:1:pos:R:3 frame=T 16=T |=T Written=T by=T MDAnalysis=T XYZWriter=T (release=T 2.4.3)=T pbc="F F F"
H       -7.08044000       5.82969000       9.00710000
O       -6.20469000       5.46331000       9.19382000
H       -5.69237000       5.67299000       8.39112000
H       -6.01348000       3.37049000       9.82102000
O       -5.99496000       2.59222000      10.40147000
H       -6.40063000       1.86822000       9.91025000
