6
Properties=species:S:1:pos:R:3 frame=T 36=T |=T Written=T by=T MDAnalysis=T XYZWriter=T (release=T 2.4.3)=T pbc="F F F"
H       -0.60010000      -3.13530000       5.28537000
O       -1.39181000      -3.59420000       4.94308000
H       -2.04341000      -3.45057000       5.68365000
H       -2.32716000      -3.49654000       7.45461000
O       -3.17128000      -3.22289000       7.05736000
H       -3.01086000      -2.28740000       6.92769000
