6
Properties=species:S:1:pos:R:3 frame=T 51=T |=T Written=T by=T MDAnalysis=T XYZWriter=T (release=T 2.4.3)=T pbc="F F F"
H       -8.31149000      -7.62700000     -10.84223000
O       -8.28291000      -6.75827000     -11.23560000
H       -8.94619000      -6.29969000     -10.81488000
H       -7.99086000      -5.61755000     -14.58519000
O       -7.88070000      -6.54595000     -14.31832000
H       -8.15080000      -6.53268000     -13.42396000
