6
Properties=species:S:1:pos:R:3 frame=T 3=T |=T Written=T by=T MDAnalysis=T XYZWriter=T (release=T 2.4.3)=T pbc="F F F"
H      -14.58019000      10.65689000     -16.57096000
O      -15.31354000      10.15144000     -16.18028000
H      -15.88389000      10.86045000     -15.85843000
H      -17.07686000      10.20495000     -18.45503000
O      -16.82080000      11.10364000     -18.23248000
H      -16.23551000      11.01276000     -17.48403000
