6
Properties=species:S:1:pos:R:3 frame=T 45=T |=T Written=T by=T MDAnalysis=T XYZWriter=T (release=T 2.4.3)=T pbc="F F F"
H       10.81260000      -3.31658000      -0.69050000
O       11.73077000      -3.59865000      -0.61147000
H       11.70995000      -4.46362000      -1.07511000
H       12.54653000      -3.74385000      -3.63386000
O       13.29314000      -4.02676000      -3.10475000
H       13.60892000      -4.75015000      -3.62326000
