6
Properties=species:S:1:pos:R:3 frame=T 54=T |=T Written=T by=T MDAnalysis=T XYZWriter=T (release=T 2.4.3)=T pbc="F F F"
H        1.66566000      17.65605000     -10.43280000
O        1.52606000      16.72248000     -10.28276000
H        0.93136000      16.69054000      -9.52100000
H       -0.29812000      18.39342000      -9.31975000
O       -0.98901000      17.81900000      -8.94392000
H       -1.32653000      17.38274000      -9.77065000
