6
Properties=species:S:1:pos:R:3 frame=T 13=T |=T Written=T by=T MDAnalysis=T XYZWriter=T (release=T 2.4.3)=T pbc="F F F"
H      -18.48739000       7.26725000     -10.85141000
O      -18.37165000       7.06219000      -9.92761000
H      -17.48915000       6.62886000      -9.96950000
H      -19.38762000       7.66889000     -12.61786000
O      -18.41924000       7.57126000     -12.69551000
H      -18.26868000       6.66061000     -12.42914000
