6
Properties=species:S:1:pos:R:3 frame=T 11=T |=T Written=T by=T MDAnalysis=T XYZWriter=T (release=T 2.4.3)=T pbc="F F F"
H        1.93483000      16.10318000      14.25110000
O        1.94179000      15.72577000      15.13375000
H        1.00337000      15.80937000      15.35909000
H        0.03431000      13.75498000      15.37752000
O        0.27382000      13.47287000      14.51877000
H        0.69322000      14.27137000      14.22022000
