6
Properties=species:S:1:pos:R:3 frame=T 34=T |=T Written=T by=T MDAnalysis=T XYZWriter=T (release=T 2.4.3)=T pbc="F F F"
H       16.94118000     -15.03120000      15.87936000
O       17.26091000     -14.49355000      15.13217000
H       18.06126000     -15.00076000      14.92004000
H       18.02412000     -16.14362000      17.16883000
O       17.25102000     -15.61247000      17.40608000
H       16.52734000     -16.24983000      17.47608000
