6
Properties=species:S:1:pos:R:3 frame=T 47=T |=T Written=T by=T MDAnalysis=T XYZWriter=T (release=T 2.4.3)=T pbc="F F F"
H      -16.79956000      10.98808000     -15.96230000
O      -16.55472000      11.47721000     -16.75476000
H      -17.38310000      11.67277000     -17.19234000
H      -14.51395000      11.46379000     -17.74191000
O      -13.80143000      10.98503000     -17.29161000
H      -13.17388000      11.69384000     -17.22670000
