6
Properties=species:S:1:pos:R:3 frame=T 9=T |=T Written=T by=T MDAnalysis=T XYZWriter=T (release=T 2.4.3)=T pbc="F F F"
H       16.55184000      -6.04879000      -4.05828000
O       16.67378000      -5.83953000      -4.98042000
H       17.59475000      -5.48739000      -4.96821000
H       18.72859000      -3.67017000      -5.59239000
O       18.53683000      -2.71954000      -5.52680000
H       17.64898000      -2.64117000      -5.86900000
