6
Properties=species:S:1:pos:R:3 frame=T 30=T |=T Written=T by=T MDAnalysis=T XYZWriter=T (release=T 2.4.3)=T pbc="F F F"
H       17.97750000      -9.64251000       3.63375000
O       18.60992000     -10.01474000       4.28270000
H       19.22247000     -10.50579000       3.69806000
H       17.90863000     -10.33873000       1.41558000
O       18.79608000     -10.01641000       1.54960000
H       18.59337000      -9.08323000       1.45221000
