6
Properties=species:S:1:pos:R:3 frame=T 2=T |=T Written=T by=T MDAnalysis=T XYZWriter=T (release=T 2.4.3)=T pbc="F F F"
H       16.29966000       7.86999000      16.91269000
O       16.59853000       7.78235000      16.00843000
H       17.52600000       7.95897000      16.05714000
H       14.19536000       5.09256000      17.75513000
O       14.47769000       6.00070000      17.71258000
H       15.40780000       5.95279000      17.59659000
