6
Properties=species:S:1:pos:R:3 frame=T 33=T |=T Written=T by=T MDAnalysis=T XYZWriter=T (release=T 2.4.3)=T pbc="F F F"
H        6.08076000       6.28719000      -2.70761000
O        5.58442000       6.71700000      -2.00721000
H        5.39406000       7.58832000      -2.37019000
H        5.87052000      10.12420000      -2.15144000
O        5.12966000       9.81662000      -2.67899000
H        5.22071000      10.33590000      -3.50101000
