6
Properties=species:S:1:pos:R:3 frame=T 51=T |=T Written=T by=T MDAnalysis=T XYZWriter=T (release=T 2.4.3)=T pbc="F F F"
H       -2.84236000      18.72199000      -1.96704000
O       -3.43364000      17.96911000      -1.73102000
H       -3.99101000      17.82512000      -2.48290000
H       -4.58047000      18.37639000      -4.37336000
O       -5.36763000      18.47086000      -3.76500000
H       -5.14936000      19.30462000      -3.28336000
