6
Properties=species:S:1:pos:R:3 frame=T 16=T |=T Written=T by=T MDAnalysis=T XYZWriter=T (release=T 2.4.3)=T pbc="F F F"
H        8.97086000      17.43604000      -6.26036000
O        9.68510000      16.81640000      -6.37012000
H       10.10404000      16.82754000      -5.51848000
H        9.60107000      13.19766000      -5.99694000
O       10.34163000      13.62221000      -6.47397000
H       10.05367000      14.53373000      -6.45978000
