6
Properties=species:S:1:pos:R:3 frame=T 48=T |=T Written=T by=T MDAnalysis=T XYZWriter=T (release=T 2.4.3)=T pbc="F F F"
H      -10.89406000       1.97893000      16.85359000
O      -11.61887000       2.36003000      16.32775000
H      -12.01946000       1.57153000      15.94455000
H       -9.15728000       0.90425000      16.33877000
O       -9.40740000      -0.02725000      16.48357000
H      -10.21727000      -0.17634000      15.99740000
