6
Properties=species:S:1:pos:R:3 frame=T 23=T |=T Written=T by=T MDAnalysis=T XYZWriter=T (release=T 2.4.3)=T pbc="F F F"
H      -16.17379000      -1.54877000     -11.05078000
O      -16.35306000      -0.95638000     -11.80488000
H      -16.31911000      -0.08734000     -11.42963000
H      -17.35570000      -0.60434000      -9.61336000
O      -17.44964000       0.32304000      -9.35356000
H      -18.12987000       0.63278000      -9.94551000
