6
Properties=species:S:1:pos:R:3 frame=T 27=T |=T Written=T by=T MDAnalysis=T XYZWriter=T (release=T 2.4.3)=T pbc="F F F"
H        0.72194000     -19.11684000      -6.64895000
O        0.61713000     -18.30162000      -7.15112000
H        0.79380000     -17.60025000      -6.50198000
H        2.13375000     -17.39586000      -5.10496000
O        1.25217000     -17.06704000      -5.00514000
H        0.94753000     -17.48103000      -4.20025000
