6
Properties=species:S:1:pos:R:3 frame=T 0=T |=T Written=T by=T MDAnalysis=T XYZWriter=T (release=T 2.4.3)=T pbc="F F F"
H        3.95710000      15.89543000      17.93685000
O        4.38742000      16.29866000      17.14216000
H        3.76368000      16.18925000      16.40996000
H        1.55877000      15.13078000      18.71902000
O        0.86438000      14.95679000      18.06054000
H        0.98565000      14.04955000      17.85386000
