6
Properties=species:S:1:pos:R:3 frame=T 24=T |=T Written=T by=T MDAnalysis=T XYZWriter=T (release=T 2.4.3)=T pbc="F F F"
H       14.38282000     -13.50240000     -18.26362000
O       14.53077000     -14.38473000     -17.90640000
H       14.94123000     -14.83924000     -18.63759000
H       14.08401000     -10.07578000     -19.33900000
O       13.83533000     -10.83452000     -18.86665000
H       14.67049000     -11.03581000     -18.39014000
