6
Properties=species:S:1:pos:R:3 frame=T 20=T |=T Written=T by=T MDAnalysis=T XYZWriter=T (release=T 2.4.3)=T pbc="F F F"
H       16.99879000      16.11033000      -1.51574000
O       16.11847000      16.07734000      -1.17062000
H       16.34716000      15.92212000      -0.25272000
H       16.82362000      18.42578000       1.34541000
O       17.73117000      18.71040000       1.19618000
H       17.71523000      18.90510000       0.25170000
