6
Properties=species:S:1:pos:R:3 frame=T 8=T |=T Written=T by=T MDAnalysis=T XYZWriter=T (release=T 2.4.3)=T pbc="F F F"
H        4.25636000      18.62750000       0.50430000
O        3.55563000      19.11279000       0.95101000
H        2.84913000      18.45879000       0.91294000
H        5.49282000      17.81213000       2.40827000
O        5.12441000      16.99068000       2.06347000
H        4.93112000      17.15224000       1.13829000
