6
Properties=species:S:1:pos:R:3 frame=T 37=T |=T Written=T by=T MDAnalysis=T XYZWriter=T (release=T 2.4.3)=T pbc="F F F"
H      -17.35154000       4.91586000      -6.16066000
O      -17.58198000       4.29272000      -6.87273000
H      -18.43652000       3.95510000      -6.54248000
H      -18.14804000       4.81696000      -3.93924000
O      -18.07111000       5.71525000      -4.33192000
H      -18.89797000       5.82655000      -4.80392000
