6
Properties=species:S:1:pos:R:3 frame=T 17=T |=T Written=T by=T MDAnalysis=T XYZWriter=T (release=T 2.4.3)=T pbc="F F F"
H       18.36981000       3.92486000      -1.06305000
O       17.52715000       4.37944000      -0.82443000
H       17.86869000       5.12612000      -0.30137000
H       16.67464000       4.38240000      -3.01313000
O       16.07895000       5.13086000      -3.15976000
H       15.72728000       4.96827000      -4.05947000
