6
Properties=species:S:1:pos:R:3 frame=T 11=T |=T Written=T by=T MDAnalysis=T XYZWriter=T (release=T 2.4.3)=T pbc="F F F"
H       -9.23032000      17.47158000      12.25030000
O       -8.42072000      17.83154000      12.62177000
H       -8.68830000      18.65998000      13.05692000
H      -11.00817000      18.21269000      12.99705000
O      -11.32248000      19.09221000      13.20680000
H      -10.85727000      19.26718000      14.03254000
