6
Properties=species:S:1:pos:R:3 frame=T 25=T |=T Written=T by=T MDAnalysis=T XYZWriter=T (release=T 2.4.3)=T pbc="F F F"
H      -11.02176000       7.07350000      15.42762000
O      -10.64790000       7.33682000      14.57312000
H      -10.46322000       8.27419000      14.70089000
H      -12.50595000       8.60944000      16.95477000
O      -12.76635000       8.51079000      16.02357000
H      -12.15143000       8.94790000      15.47187000
