6
Properties=species:S:1:pos:R:3 frame=T 54=T |=T Written=T by=T MDAnalysis=T XYZWriter=T (release=T 2.4.3)=T pbc="F F F"
H       11.66952000     -15.83291000     -16.85368000
O       10.84526000     -15.86906000     -17.36443000
H       11.09629000     -15.39192000     -18.16878000
H       13.16317000     -18.45481000     -18.16122000
O       12.62268000     -17.88081000     -18.72856000
H       13.23287000     -17.17631000     -18.99670000
