6
Properties=species:S:1:pos:R:3 frame=T 17=T |=T Written=T by=T MDAnalysis=T XYZWriter=T (release=T 2.4.3)=T pbc="F F F"
H      -11.98712000      -7.17952000       6.24371000
O      -12.25903000      -7.24195000       7.16826000
H      -12.79080000      -8.03710000       7.13872000
H      -12.04936000      -7.77891000       3.78742000
O      -11.20822000      -7.93979000       4.13172000
H      -10.75749000      -8.42073000       3.45055000
