6
Properties=species:S:1:pos:R:3 frame=T 40=T |=T Written=T by=T MDAnalysis=T XYZWriter=T (release=T 2.4.3)=T pbc="F F F"
H       10.45655000       9.46737000      16.07689000
O       10.76735000       9.36606000      16.97635000
H       11.55596000       8.86229000      16.81283000
H        9.55774000       8.41191000      15.55872000
O        9.63516000       8.70895000      14.64211000
H        8.71455000       8.99593000      14.42571000
