6
Properties=species:S:1:pos:R:3 frame=T 5=T |=T Written=T by=T MDAnalysis=T XYZWriter=T (release=T 2.4.3)=T pbc="F F F"
H        9.56367000      13.97416000      -7.28888000
O        9.32152000      14.03603000      -8.24355000
H        8.42563000      14.40261000      -8.26445000
H        8.82645000      14.41730000      -5.67655000
O        9.78890000      14.43660000      -5.53937000
H       10.05408000      15.33998000      -5.73459000
