6
Properties=species:S:1:pos:R:3 frame=T 47=T |=T Written=T by=T MDAnalysis=T XYZWriter=T (release=T 2.4.3)=T pbc="F F F"
H       11.65350000      -0.40808000      13.58071000
O       12.04586000       0.38553000      13.95078000
H       12.01975000       0.24997000      14.92031000
H       13.96490000      -1.77074000      15.20742000
O       14.18289000      -1.20929000      14.43696000
H       13.40920000      -0.68746000      14.29891000
