6
Properties=species:S:1:pos:R:3 frame=T 9=T |=T Written=T by=T MDAnalysis=T XYZWriter=T (release=T 2.4.3)=T pbc="F F F"
H       -9.94230000     -16.01636000      -4.92289000
O      -10.47720000     -16.15980000      -4.11414000
H      -11.17541000     -16.77328000      -4.39201000
H      -10.88545000     -13.64476000      -1.49107000
O      -11.28620000     -14.05412000      -2.26572000
H      -10.59842000     -14.36778000      -2.86880000
