6
Properties=species:S:1:pos:R:3 frame=T 19=T |=T Written=T by=T MDAnalysis=T XYZWriter=T (release=T 2.4.3)=T pbc="F F F"
H      -16.46273000      13.52459000      -5.66098000
O      -15.97341000      14.21389000      -6.14456000
H      -15.92278000      14.96072000      -5.53833000
H      -18.68767000      15.37216000      -6.24043000
O      -18.08603000      15.49769000      -7.00501000
H      -17.30777000      14.94072000      -6.75822000
