6
Properties=species:S:1:pos:R:3 frame=T 32=T |=T Written=T by=T MDAnalysis=T XYZWriter=T (release=T 2.4.3)=T pbc="F F F"
H        2.87950000       3.61143000     -17.16850000
O        2.13246000       3.70228000     -16.56006000
H        2.22026000       4.59856000     -16.21669000
H        1.96168000       7.34013000     -17.08250000
O        1.49725000       6.50865000     -17.14824000
H        0.58710000       6.81280000     -17.26423000
