6
Properties=species:S:1:pos:R:3 frame=T 15=T |=T Written=T by=T MDAnalysis=T XYZWriter=T (release=T 2.4.3)=T pbc="F F F"
H       14.68436000       0.82359000      18.57347000
O       14.74523000       1.79739000      18.52135000
H       15.27434000       2.04161000      19.29427000
H       17.13371000       3.71415000      19.20139000
O       17.25812000       3.93471000      18.24239000
H       16.47454000       4.45353000      18.09513000
