6
Properties=species:S:1:pos:R:3 frame=T 41=T |=T Written=T by=T MDAnalysis=T XYZWriter=T (release=T 2.4.3)=T pbc="F F F"
H      -17.73959000      -7.38690000     -14.32001000
O      -18.45771000      -7.17434000     -13.70752000
H      -18.01206000      -6.80249000     -12.94435000
H      -17.89937000      -8.81183000     -12.99757000
O      -17.86074000      -9.44839000     -12.29642000
H      -18.20632000      -8.96012000     -11.52050000
