6
Properties=species:S:1:pos:R:3 frame=T 7=T |=T Written=T by=T MDAnalysis=T XYZWriter=T (release=T 2.4.3)=T pbc="F F F"
H       -8.93318000     -17.68642000       6.74412000
O       -8.20124000     -17.10603000       7.01207000
H       -8.23018000     -17.19326000       7.99253000
H       -9.49212000     -16.80461000       9.15696000
O       -8.66576000     -16.95434000       9.59872000
H       -8.38125000     -16.00980000       9.67384000
