6
Properties=species:S:1:pos:R:3 frame=T 2=T |=T Written=T by=T MDAnalysis=T XYZWriter=T (release=T 2.4.3)=T pbc="F F F"
H       -9.39433000      15.80982000       9.26151000
O      -10.21140000      15.28384000       9.19254000
H      -10.32094000      14.93807000      10.05722000
H       -8.53641000      16.50802000      11.59562000
O       -8.09063000      16.49330000      10.75081000
H       -7.99355000      15.54116000      10.56459000
