6
Properties=species:S:1:pos:R:3 frame=T 15=T |=T Written=T by=T MDAnalysis=T XYZWriter=T (release=T 2.4.3)=T pbc="F F F"
H       -8.29565000       7.81452000       9.73212000
O       -8.38143000       7.10367000       9.10572000
H       -9.12400000       6.64719000       9.50612000
H       -7.70643000       7.10246000      10.89879000
O       -7.49928000       6.96233000      11.81945000
H       -6.93405000       7.71255000      12.08259000
