6
Properties=species:S:1:pos:R:3 frame=T 5=T |=T Written=T by=T MDAnalysis=T XYZWriter=T (release=T 2.4.3)=T pbc="F F F"
H       16.60367000       1.76042000      -5.83945000
O       15.85515000       1.17567000      -6.08443000
H       15.63462000       1.59772000      -6.92944000
H       17.61876000       1.80717000      -3.35049000
O       17.78211000       2.27812000      -4.17588000
H       18.42811000       2.94520000      -3.85950000
