6
Properties=species:S:1:pos:R:3 frame=T 19=T |=T Written=T by=T MDAnalysis=T XYZWriter=T (release=T 2.4.3)=T pbc="F F F"
H        7.07371000      -6.01649000     -13.52844000
O        6.91478000      -5.14974000     -13.11509000
H        7.24019000      -4.51539000     -13.75197000
H        4.61192000      -4.76503000     -13.46615000
O        3.70171000      -4.39960000     -13.53220000
H        3.59388000      -4.19488000     -14.48234000
