6
Properties=species:S:1:pos:R:3 frame=T 51=T |=T Written=T by=T MDAnalysis=T XYZWriter=T (release=T 2.4.3)=T pbc="F F F"
H        5.52326000      15.94091000     -12.59901000
O        6.25408000      15.59750000     -12.06333000
H        6.53424000      16.38765000     -11.57733000
H        7.33793000      15.66501000     -13.30614000
O        7.96209000      15.94104000     -13.94949000
H        8.09187000      16.88883000     -13.83493000
