6
Properties=species:S:1:pos:R:3 frame=T 35=T |=T Written=T by=T MDAnalysis=T XYZWriter=T (release=T 2.4.3)=T pbc="F F F"
H       17.21776000     -16.18589000      -1.62285000
O       17.52828000     -17.06386000      -1.31071000
H       17.11786000     -17.70075000      -1.92789000
H       15.39775000     -18.96310000      -1.65779000
O       15.50635000     -18.34320000      -2.41724000
H       15.18123000     -17.48661000      -2.06593000
