6
Properties=species:S:1:pos:R:3 frame=T 32=T |=T Written=T by=T MDAnalysis=T XYZWriter=T (release=T 2.4.3)=T pbc="F F F"
H       -6.82686000       1.66565000       2.72168000
O       -7.61644000       1.99755000       2.31360000
H       -8.30334000       1.66461000       2.92906000
H       -7.12661000       1.86416000       0.17840000
O       -7.72594000       1.98691000      -0.57326000
H       -7.11633000       1.99810000      -1.30974000
