6
Properties=species:S:1:pos:R:3 frame=T 11=T |=T Written=T by=T MDAnalysis=T XYZWriter=T (release=T 2.4.3)=T pbc="F F F"
H       18.28212000      -8.39616000     -15.55948000
O       18.83361000      -8.18813000     -16.30809000
H       18.24729000      -8.24159000     -17.09501000
H       17.11746000      -5.87525000     -15.18734000
O       17.61263000      -5.88736000     -15.99406000
H       18.15783000      -6.67873000     -15.88400000
