6
Properties=species:S:1:pos:R:3 frame=T 6=T |=T Written=T by=T MDAnalysis=T XYZWriter=T (release=T 2.4.3)=T pbc="F F F"
H       14.79194000     -17.91210000     -12.89240000
O       15.22240000     -17.05430000     -12.75162000
H       16.13902000     -17.31044000     -12.63690000
H       15.87877000     -16.94941000     -14.71189000
O       16.04215000     -17.58606000     -15.42952000
H       16.76892000     -18.10212000     -15.06868000
