6
Properties=species:S:1:pos:R:3 frame=T 42=T |=T Written=T by=T MDAnalysis=T XYZWriter=T (release=T 2.4.3)=T pbc="F F F"
H       16.22314000      -9.82714000       8.78208000
O       16.31431000      -8.91435000       8.58788000
H       16.83767000      -8.50981000       9.29423000
H       18.84039000     -10.24937000       9.14938000
O       18.43402000     -10.69965000       9.88002000
H       18.20031000      -9.97134000      10.47951000
