6
Properties=species:S:1:pos:R:3 frame=T 2=T |=T Written=T by=T MDAnalysis=T XYZWriter=T (release=T 2.4.3)=T pbc="F F F"
H      -13.20865000      15.69554000     -18.39017000
O      -13.63556000      14.82194000     -18.33307000
H      -14.52107000      15.07624000     -18.53223000
H      -15.06203000      17.86488000     -18.25200000
O      -15.80690000      17.54085000     -17.74266000
H      -15.43587000      17.07628000     -16.97129000
