6
Properties=species:S:1:pos:R:3 frame=T 54=T |=T Written=T by=T MDAnalysis=T XYZWriter=T (release=T 2.4.3)=T pbc="F F F"
H       17.57165000     -12.46637000     -15.82939000
O       16.82084000     -13.06386000     -15.83193000
H       16.64126000     -13.21610000     -16.76376000
H       18.17400000     -16.53429000     -15.13966000
O       17.64321000     -15.90067000     -14.62235000
H       17.69800000     -15.11857000     -15.18572000
