6
Properties=species:S:1:pos:R:3 frame=T 49=T |=T Written=T by=T MDAnalysis=T XYZWriter=T (release=T 2.4.3)=T pbc="F F F"
H      -15.75950000      15.28318000       1.88229000
O      -16.49003000      15.78198000       1.44567000
H      -16.12713000      16.03033000       0.61348000
H      -16.73194000      17.52687000       1.76011000
O      -16.38308000      18.40781000       1.68585000
H      -15.48448000      18.27700000       1.39908000
