6
Properties=species:S:1:pos:R:3 frame=T 52=T |=T Written=T by=T MDAnalysis=T XYZWriter=T (release=T 2.4.3)=T pbc="F F F"
H       -7.05260000      -1.44087000      11.31065000
O       -6.81561000      -2.34078000      11.04654000
H       -6.55403000      -2.22229000      10.13964000
H       -9.26266000       0.35574000      12.04172000
O       -8.28726000       0.40803000      11.87975000
H       -8.23208000       0.89856000      11.07534000
