6
Properties=species:S:1:pos:R:3 frame=T 39=T |=T Written=T by=T MDAnalysis=T XYZWriter=T (release=T 2.4.3)=T pbc="F F F"
H      -18.03370000       7.47085000       1.39698000
O      -18.81862000       7.98375000       1.64476000
H      -18.65018000       8.16505000       2.57757000
H      -18.00738000      10.83426000       1.12333000
O      -18.81684000      11.31594000       1.29361000
H      -19.32650000      10.62613000       1.74698000
