6
Properties=species:S:1:pos:R:3 frame=T 14=T |=T Written=T by=T MDAnalysis=T XYZWriter=T (release=T 2.4.3)=T pbc="F F F"
H       17.37558000      -1.09308000     -16.33297000
O       18.27956000      -1.43185000     -16.22551000
H       18.45238000      -1.15160000     -15.31388000
H       17.09317000      -2.70196000     -14.02475000
O       16.23684000      -2.94012000     -14.35573000
H       16.09311000      -2.44259000     -15.18275000
