6
Properties=species:S:1:pos:R:3 frame=T 40=T |=T Written=T by=T MDAnalysis=T XYZWriter=T (release=T 2.4.3)=T pbc="F F F"
H      -10.26541000      -9.31954000      19.32833000
O       -9.31244000      -9.53206000      19.32939000
H       -9.06182000      -9.38327000      18.41209000
H       -9.54664000     -11.06966000      17.98680000
O       -9.75149000     -12.00361000      18.05517000
H       -9.82948000     -12.08788000      19.02760000
