6
Properties=species:S:1:pos:R:3 frame=T 44=T |=T Written=T by=T MDAnalysis=T XYZWriter=T (release=T 2.4.3)=T pbc="F F F"
H      -18.75589000     -17.07319000      15.26101000
O      -18.45678000     -17.84915000      14.78810000
H      -18.97690000     -17.77843000      13.97629000
H      -17.83530000     -15.37459000      13.95363000
O      -18.32486000     -14.95038000      13.23117000
H      -19.22964000     -15.09667000      13.55916000
