6
Properties=species:S:1:pos:R:3 frame=T 24=T |=T Written=T by=T MDAnalysis=T XYZWriter=T (release=T 2.4.3)=T pbc="F F F"
H        9.68767000      10.65774000     -13.44639000
O        8.72102000      10.60396000     -13.55774000
H        8.61898000      11.17074000     -14.31451000
H        9.96226000      11.46454000     -15.83847000
O       10.00569000      12.26801000     -15.28695000
H       10.55979000      11.99068000     -14.54061000
