6
Properties=species:S:1:pos:R:3 frame=T 32=T |=T Written=T by=T MDAnalysis=T XYZWriter=T (release=T 2.4.3)=T pbc="F F F"
H       17.60471000       6.30146000     -13.18882000
O       17.71138000       5.84361000     -13.99499000
H       17.76911000       4.88050000     -13.81715000
H       18.54682000       8.46518000     -13.93370000
O       18.74494000       9.41165000     -13.80956000
H       17.93279000       9.85218000     -14.10297000
