6
Properties=species:S:1:pos:R:3 frame=T 52=T |=T Written=T by=T MDAnalysis=T XYZWriter=T (release=T 2.4.3)=T pbc="F F F"
H       18.50706000      -6.13064000       7.50424000
O       18.49714000      -6.73099000       6.73461000
H       17.71702000      -7.26860000       6.85578000
H       18.44789000      -7.96050000      10.21403000
O       19.35904000      -7.64205000      10.45304000
H       19.51384000      -6.88446000       9.88477000
