6
Properties=species:S:1:pos:R:3 frame=T 35=T |=T Written=T by=T MDAnalysis=T XYZWriter=T (release=T 2.4.3)=T pbc="F F F"
H      -19.08632000      10.79534000       4.12153000
O      -19.24741000      10.87947000       3.16905000
H      -18.58730000      10.29157000       2.79526000
H      -17.88195000      13.16680000       2.89648000
O      -16.97427000      13.04412000       2.61574000
H      -16.54716000      12.72903000       3.38632000
