6
Properties=species:S:1:pos:R:3 frame=T 34=T |=T Written=T by=T MDAnalysis=T XYZWriter=T (release=T 2.4.3)=T pbc="F F F"
H        7.36935000      19.18950000      -5.63214000
O        7.80929000      18.72891000      -4.89828000
H        7.73189000      17.78933000      -5.07192000
H        4.69782000      17.30072000      -7.14405000
O        5.46756000      17.80275000      -7.38008000
H        6.21228000      17.25479000      -7.12723000
