6
Properties=species:S:1:pos:R:3 frame=T 30=T |=T Written=T by=T MDAnalysis=T XYZWriter=T (release=T 2.4.3)=T pbc="F F F"
H       -0.17921000       9.34806000       7.08747000
O        0.31375000       9.51605000       7.87674000
H        0.48745000       8.61800000       8.20739000
H       -1.27999000       9.98352000       8.76006000
O       -2.14209000       9.69770000       9.10528000
H       -2.13092000       8.72996000       9.01555000
