6
Properties=species:S:1:pos:R:3 frame=T 29=T |=T Written=T by=T MDAnalysis=T XYZWriter=T (release=T 2.4.3)=T pbc="F F F"
H        2.77746000       2.26833000      -4.66342000
O        2.93003000       2.37521000      -3.71501000
H        2.08660000       2.64818000      -3.30705000
H        3.40126000       3.98660000      -3.43547000
O        3.40098000       4.88262000      -3.11612000
H        2.59971000       4.91105000      -2.59556000
