6
Properties=species:S:1:pos:R:3 frame=T 6=T |=T Written=T by=T MDAnalysis=T XYZWriter=T (release=T 2.4.3)=T pbc="F F F"
H       10.32512000      -9.58072000      -4.76275000
O        9.73552000      -8.88628000      -5.13254000
H        9.92163000      -8.13870000      -4.53896000
H        9.33179000      -8.78530000      -7.36058000
O        9.60899000      -9.01659000      -8.25220000
H       10.56066000      -8.95287000      -8.27022000
