6
Properties=species:S:1:pos:R:3 frame=T 25=T |=T Written=T by=T MDAnalysis=T XYZWriter=T (release=T 2.4.3)=T pbc="F F F"
H       -6.55204000      10.68834000     -11.34725000
O       -6.45431000       9.87778000     -11.81969000
H       -6.38260000      10.15730000     -12.73272000
H       -8.30152000      11.97852000     -12.40512000
O       -8.45143000      12.93408000     -12.52403000
H       -8.31319000      12.98625000     -13.50096000
