6
Properties=species:S:1:pos:R:3 frame=T 27=T |=T Written=T by=T MDAnalysis=T XYZWriter=T (release=T 2.4.3)=T pbc="F F F"
H       18.48253000       5.96264000      -8.17239000
O       17.61326000       6.40271000      -8.27830000
H       17.46257000       6.25635000      -9.22600000
H       16.58567000       2.64829000      -7.63535000
O       16.46239000       3.55420000      -7.30926000
H       17.38146000       3.91919000      -7.33490000
