6
Properties=species:S:1:pos:R:3 frame=T 24=T |=T Written=T by=T MDAnalysis=T XYZWriter=T (release=T 2.4.3)=T pbc="F F F"
H       -5.55092000       0.77426000      -3.20122000
O       -4.58273000       0.77953000      -3.38134000
H       -4.39469000       1.72741000      -3.22057000
H       -4.89590000       1.79390000      -4.89839000
O       -4.65375000       2.35795000      -5.61227000
H       -5.04749000       3.18091000      -5.33610000
