6
Properties=species:S:1:pos:R:3 frame=T 1=T |=T Written=T by=T MDAnalysis=T XYZWriter=T (release=T 2.4.3)=T pbc="F F F"
H       15.11938000       6.23635000     -18.72679000
O       14.90263000       7.03627000     -19.21834000
H       15.43491000       7.74433000     -18.80764000
H       15.99623000       8.16590000     -16.83403000
O       16.70994000       7.78253000     -17.33315000
H       16.84230000       6.95206000     -16.86928000
