6
Properties=species:S:1:pos:R:3 frame=T 28=T |=T Written=T by=T MDAnalysis=T XYZWriter=T (release=T 2.4.3)=T pbc="F F F"
H       16.93165000      -3.98030000     -17.07904000
O       17.73191000      -4.49199000     -17.32398000
H       17.93395000      -4.80891000     -16.42760000
H       17.45201000      -5.45127000     -14.15297000
O       17.01159000      -4.83393000     -14.76102000
H       16.45176000      -5.41699000     -15.30939000
