6
Properties=species:S:1:pos:R:3 frame=T 8=T |=T Written=T by=T MDAnalysis=T XYZWriter=T (release=T 2.4.3)=T pbc="F F F"
H       -2.84986000      -8.73561000      19.31777000
O       -2.93613000      -8.70973000      18.35752000
H       -2.19949000      -9.27483000      18.05316000
H       -4.16249000      -7.65283000      17.05577000
O       -4.80241000      -7.83770000      16.38606000
H       -5.16971000      -6.97572000      16.18290000
