6
Properties=species:S:1:pos:R:3 frame=T 13=T |=T Written=T by=T MDAnalysis=T XYZWriter=T (release=T 2.4.3)=T pbc="F F F"
H        9.16656000       4.66118000      -0.72682000
O        9.32138000       5.59289000      -0.46210000
H        8.80768000       5.74149000       0.33136000
H        9.86255000       6.78452000       1.72091000
O        9.85641000       7.73533000       1.87955000
H        9.72809000       7.89426000       2.81953000
