6
Properties=species:S:1:pos:R:3 frame=T 35=T |=T Written=T by=T MDAnalysis=T XYZWriter=T (release=T 2.4.3)=T pbc="F F F"
H       -4.26336000     -14.32037000     -18.72083000
O       -4.70720000     -14.99388000     -18.18597000
H       -4.77326000     -14.55042000     -17.34598000
H       -5.65419000     -11.77050000     -16.44911000
O       -5.40468000     -12.18947000     -17.31236000
H       -5.42747000     -11.42267000     -17.87884000
