6
Properties=species:S:1:pos:R:3 frame=T 53=T |=T Written=T by=T MDAnalysis=T XYZWriter=T (release=T 2.4.3)=T pbc="F F F"
H       14.27580000      16.27095000      13.39566000
O       14.79390000      15.65842000      13.96669000
H       15.56123000      15.49387000      13.40672000
H       18.26887000      16.46054000      14.63296000
O       18.21410000      16.25554000      13.66998000
H       17.77473000      15.37673000      13.75582000
