6
Properties=species:S:1:pos:R:3 frame=T 2=T |=T Written=T by=T MDAnalysis=T XYZWriter=T (release=T 2.4.3)=T pbc="F F F"
H      -11.97107000      -7.21005000       5.48559000
O      -11.32275000      -7.94957000       5.59939000
H      -11.88465000      -8.71359000       5.84246000
H      -12.06624000      -8.23024000       3.95544000
O      -12.50633000      -8.07420000       3.10149000
H      -13.37578000      -8.47531000       3.25066000
