6
Properties=species:S:1:pos:R:3 frame=T 28=T |=T Written=T by=T MDAnalysis=T XYZWriter=T (release=T 2.4.3)=T pbc="F F F"
H       -4.95487000     -11.61863000     -13.94165000
O       -4.16416000     -12.09857000     -13.65095000
H       -3.54976000     -11.88316000     -14.37355000
H       -2.65454000     -13.02406000     -15.46954000
O       -2.52496000     -12.10080000     -15.69744000
H       -3.25298000     -11.93211000     -16.27533000
