6
Properties=species:S:1:pos:R:3 frame=T 54=T |=T Written=T by=T MDAnalysis=T XYZWriter=T (release=T 2.4.3)=T pbc="F F F"
H        7.57056000       9.85227000     -14.30245000
O        7.91801000       9.04207000     -14.74693000
H        8.00048000       8.44061000     -13.99388000
H        8.94381000       8.71723000     -11.89206000
O        8.27745000       8.03886000     -12.18470000
H        7.44846000       8.53967000     -12.06352000
