6
Properties=species:S:1:pos:R:3 frame=T 51=T |=T Written=T by=T MDAnalysis=T XYZWriter=T (release=T 2.4.3)=T pbc="F F F"
H       -8.77958000     -17.98744000       2.79716000
O       -9.01702000     -18.90190000       2.63743000
H       -9.53845000     -19.16138000       3.39937000
H       -9.52128000     -19.15990000       5.59209000
O      -10.10571000     -18.67679000       5.04557000
H       -9.80050000     -17.74473000       5.02052000
