6
Properties=species:S:1:pos:R:3 frame=T 11=T |=T Written=T by=T MDAnalysis=T XYZWriter=T (release=T 2.4.3)=T pbc="F F F"
H      -13.82960000      -1.82906000      -9.99597000
O      -14.35743000      -2.50195000      -9.53593000
H      -14.34522000      -3.24003000     -10.14991000
H      -13.75677000      -4.89229000     -11.04975000
O      -14.63097000      -4.50963000     -11.18005000
H      -14.44849000      -3.85691000     -11.83657000
