6
Properties=species:S:1:pos:R:3 frame=T 28=T |=T Written=T by=T MDAnalysis=T XYZWriter=T (release=T 2.4.3)=T pbc="F F F"
H      -18.85951000       2.34064000       9.67978000
O      -18.97100000       1.39154000       9.77037000
H      -18.37477000       1.00503000       9.10784000
H      -18.57130000       3.82932000       8.72152000
O      -18.71524000       3.98842000       9.66482000
H      -17.84066000       3.95786000      10.10444000
