6
Properties=species:S:1:pos:R:3 frame=T 2=T |=T Written=T by=T MDAnalysis=T XYZWriter=T (release=T 2.4.3)=T pbc="F F F"
H        6.53229000      -0.13840000       5.53412000
O        7.14269000      -0.67697000       6.02827000
H        6.90205000      -1.57848000       5.78509000
H        8.07909000       0.72225000       7.32951000
O        8.75659000       1.36721000       7.59843000
H        8.53251000       1.56046000       8.51493000
