6
Properties=species:S:1:pos:R:3 frame=T 32=T |=T Written=T by=T MDAnalysis=T XYZWriter=T (release=T 2.4.3)=T pbc="F F F"
H        8.66131000     -16.57153000      -7.88245000
O        8.82624000     -16.45166000      -8.82337000
H        8.33943000     -15.67385000      -9.07577000
H        7.29672000     -14.23426000      -7.11037000
O        7.62025000     -13.86555000      -7.94229000
H        8.54422000     -14.04125000      -7.91652000
