6
Properties=species:S:1:pos:R:3 frame=T 51=T |=T Written=T by=T MDAnalysis=T XYZWriter=T (release=T 2.4.3)=T pbc="F F F"
H       -7.65843000       8.69474000      18.26751000
O       -8.24795000       7.92852000      18.33134000
H       -8.85590000       8.05183000      17.60137000
H       -7.53667000       5.77662000      18.33965000
O       -7.62238000       4.96973000      18.86147000
H       -6.82005000       5.01663000      19.42300000
