6
Properties=species:S:1:pos:R:3 frame=T 42=T |=T Written=T by=T MDAnalysis=T XYZWriter=T (release=T 2.4.3)=T pbc="F F F"
H       15.30672000       2.18357000       5.75982000
O       15.05997000       1.86487000       6.61472000
H       15.80368000       1.28456000       6.90495000
H       17.33756000       1.34342000       7.55393000
O       16.89134000       0.62993000       7.97449000
H       16.44960000       1.02580000       8.72468000
