6
Properties=species:S:1:pos:R:3 frame=T 2=T |=T Written=T by=T MDAnalysis=T XYZWriter=T (release=T 2.4.3)=T pbc="F F F"
H      -10.69542000       4.40306000      18.57622000
O      -11.41023000       4.48402000      17.90108000
H      -11.01191000       4.17568000      17.07829000
H       -9.47785000       3.23395000      16.35468000
O       -9.86239000       3.83232000      15.71805000
H       -9.42447000       4.66431000      15.89212000
