6
Properties=species:S:1:pos:R:3 frame=T 16=T |=T Written=T by=T MDAnalysis=T XYZWriter=T (release=T 2.4.3)=T pbc="F F F"
H        1.91676000     -17.88641000      -6.78519000
O        1.44601000     -17.17084000      -6.37727000
H        0.53914000     -17.24400000      -6.67465000
H        0.61680000     -19.06019000      -8.56751000
O        1.05429000     -19.06641000      -9.43832000
H        1.80496000     -18.47941000      -9.40717000
