6
Properties=species:S:1:pos:R:3 frame=T 24=T |=T Written=T by=T MDAnalysis=T XYZWriter=T (release=T 2.4.3)=T pbc="F F F"
H       18.02756000     -15.00177000      11.09117000
O       17.85932000     -15.56087000      11.88279000
H       17.04796000     -15.16960000      12.20350000
H       16.85033000     -16.39636000      10.80728000
O       16.64346000     -17.06033000      10.16252000
H       16.33383000     -16.56451000       9.40783000
