6
Properties=species:S:1:pos:R:3 frame=T 20=T |=T Written=T by=T MDAnalysis=T XYZWriter=T (release=T 2.4.3)=T pbc="F F F"
H      -18.53181000       7.29184000     -15.97625000
O      -18.57102000       7.95271000     -15.27191000
H      -18.28073000       7.40884000     -14.50752000
H      -16.99478000       6.25719000     -13.50359000
O      -17.92894000       5.93825000     -13.56116000
H      -17.94878000       5.31875000     -14.28302000
