6
Properties=species:S:1:pos:R:3 frame=T 52=T |=T Written=T by=T MDAnalysis=T XYZWriter=T (release=T 2.4.3)=T pbc="F F F"
H       -9.08460000     -14.36646000      -6.66589000
O      -10.00007000     -14.58577000      -6.55397000
H      -10.12039000     -14.72538000      -5.62227000
H      -11.14582000     -11.80083000      -4.23215000
O      -10.17335000     -11.83082000      -4.24252000
H       -9.95743000     -12.27035000      -5.07755000
