6
Properties=species:S:1:pos:R:3 frame=T 0=T |=T Written=T by=T MDAnalysis=T XYZWriter=T (release=T 2.4.3)=T pbc="F F F"
H      -12.05470000      -1.09033000      15.62130000
O      -11.38484000      -0.64223000      16.14962000
H      -10.76601000      -1.35621000      16.38055000
H      -10.36535000       1.25740000      15.69290000
O      -10.41964000       2.04669000      15.16710000
H       -9.56973000       2.07184000      14.71446000
