6
Properties=species:S:1:pos:R:3 frame=T 51=T |=T Written=T by=T MDAnalysis=T XYZWriter=T (release=T 2.4.3)=T pbc="F F F"
H      -11.17047000      -5.44990000     -16.90961000
O      -10.51799000      -4.98539000     -16.35657000
H      -10.80330000      -5.14547000     -15.44273000
H      -11.34605000      -5.99184000     -13.68529000
O      -11.40725000      -5.04092000     -13.85073000
H      -12.14290000      -4.94108000     -14.45790000
