6
Properties=species:S:1:pos:R:3 frame=T 45=T |=T Written=T by=T MDAnalysis=T XYZWriter=T (release=T 2.4.3)=T pbc="F F F"
H       -1.96017000     -16.65989000       7.82327000
O       -1.42879000     -15.99555000       8.27519000
H       -1.23315000     -16.35379000       9.17402000
H       -2.50233000     -14.69904000       8.78023000
O       -3.36377000     -14.40787000       9.16064000
H       -3.85991000     -15.21573000       9.28589000
