6
Properties=species:S:1:pos:R:3 frame=T 29=T |=T Written=T by=T MDAnalysis=T XYZWriter=T (release=T 2.4.3)=T pbc="F F F"
H        2.31154000      -6.55303000      15.40410000
O        1.75955000      -6.85668000      16.16142000
H        1.45775000      -6.00669000      16.55205000
H        2.47791000      -4.30479000      16.83111000
O        1.61042000      -4.32829000      17.31123000
H        0.91795000      -4.05564000      16.66952000
