6
Properties=species:S:1:pos:R:3 frame=T 20=T |=T Written=T by=T MDAnalysis=T XYZWriter=T (release=T 2.4.3)=T pbc="F F F"
H       -1.75043000      18.45857000     -15.50905000
O       -2.53421000      18.04654000     -15.09589000
H       -2.69530000      17.25018000     -15.62412000
H       -0.37189000      18.80393000     -16.97718000
O       -0.12291000      18.92253000     -16.02519000
H       -0.00081000      18.01388000     -15.71030000
