6
Properties=species:S:1:pos:R:3 frame=T 31=T |=T Written=T by=T MDAnalysis=T XYZWriter=T (release=T 2.4.3)=T pbc="F F F"
H       -1.94960000     -16.03517000      11.47232000
O       -1.52890000     -15.90503000      12.34118000
H       -1.73331000     -16.72400000      12.76068000
H       -3.89552000     -17.01903000      13.14039000
O       -3.81149000     -16.48788000      13.97150000
H       -2.88712000     -16.62432000      14.22130000
