6
Properties=species:S:1:pos:R:3 frame=T 53=T |=T Written=T by=T MDAnalysis=T XYZWriter=T (release=T 2.4.3)=T pbc="F F F"
H      -16.99725000       3.03775000      -9.54878000
O      -17.97243000       3.09575000      -9.57677000
H      -18.08741000       3.12818000     -10.54542000
H      -17.70513000       2.37917000      -7.03789000
O      -17.06136000       3.06660000      -6.89877000
H      -17.55439000       3.68467000      -6.32726000
