6
Properties=species:S:1:pos:R:3 frame=T 39=T |=T Written=T by=T MDAnalysis=T XYZWriter=T (release=T 2.4.3)=T pbc="F F F"
H      -14.50673000      12.62735000       3.55506000
O      -15.19185000      12.19020000       3.01161000
H      -15.48177000      12.83448000       2.38846000
H      -15.98479000      14.00972000       1.32884000
O      -16.64256000      13.33092000       1.15104000
H      -17.20044000      13.37968000       1.96014000
