6
Properties=species:S:1:pos:R:3 frame=T 19=T |=T Written=T by=T MDAnalysis=T XYZWriter=T (release=T 2.4.3)=T pbc="F F F"
H       17.95084000      -9.27728000      -3.54104000
O       18.31313000      -8.46469000      -3.89089000
H       17.58588000      -7.82712000      -3.81503000
H       17.25892000     -10.14640000      -1.51603000
O       16.37934000     -10.38826000      -1.77560000
H       15.89422000     -10.34719000      -0.93100000
