6
Properties=species:S:1:pos:R:3 frame=T 18=T |=T Written=T by=T MDAnalysis=T XYZWriter=T (release=T 2.4.3)=T pbc="F F F"
H        9.37129000      13.96779000      -2.21840000
O        9.78200000      13.14034000      -1.97681000
H        9.65443000      12.56412000      -2.72864000
H        7.15433000      16.18159000      -3.03041000
O        7.35461000      15.28589000      -2.68937000
H        6.48443000      14.97591000      -2.35895000
