6
Properties=species:S:1:pos:R:3 frame=T 13=T |=T Written=T by=T MDAnalysis=T XYZWriter=T (release=T 2.4.3)=T pbc="F F F"
H      -18.25727000       6.05139000      -6.94202000
O      -17.80265000       5.21345000      -6.89024000
H      -17.68458000       4.98533000      -7.82757000
H      -19.11153000       8.72716000      -6.54502000
O      -18.32691000       9.21654000      -6.20417000
H      -17.61870000       8.72638000      -6.67593000
