6
Properties=species:S:1:pos:R:3 frame=T 28=T |=T Written=T by=T MDAnalysis=T XYZWriter=T (release=T 2.4.3)=T pbc="F F F"
H       16.82296000     -12.22024000     -13.15689000
O       15.96664000     -12.55517000     -12.95821000
H       15.43137000     -12.21393000     -13.67505000
H       17.80090000     -10.11874000     -12.08989000
O       17.46881000      -9.73485000     -11.26338000
H       18.24966000      -9.13473000     -11.04858000
