6
Properties=species:S:1:pos:R:3 frame=T 46=T |=T Written=T by=T MDAnalysis=T XYZWriter=T (release=T 2.4.3)=T pbc="F F F"
H        1.43716000      -2.62432000      12.59805000
O        1.64111000      -2.13362000      13.43097000
H        2.60720000      -2.15263000      13.57401000
H       -0.85910000      -2.82026000      14.11816000
O       -1.75143000      -2.66229000      13.73188000
H       -2.34507000      -2.98054000      14.40950000
