6
Properties=species:S:1:pos:R:3 frame=T 2=T |=T Written=T by=T MDAnalysis=T XYZWriter=T (release=T 2.4.3)=T pbc="F F F"
H       -2.89254000      -0.97870000      11.97398000
O       -3.09166000      -0.10164000      11.59785000
H       -4.06725000      -0.02826000      11.67338000
H       -4.78357000      -2.15085000      12.79939000
O       -3.96732000      -2.57581000      13.02225000
H       -3.68472000      -2.07620000      13.80721000
