6
Properties=species:S:1:pos:R:3 frame=T 12=T |=T Written=T by=T MDAnalysis=T XYZWriter=T (release=T 2.4.3)=T pbc="F F F"
H      -17.37147000      15.14451000       3.61469000
O      -17.79577000      14.27388000       3.57177000
H      -17.45851000      13.83990000       4.35267000
H      -14.99810000      13.04097000       3.59411000
O      -15.01461000      14.01120000       3.54679000
H      -15.81860000      14.31174000       3.12186000
