6
Properties=species:S:1:pos:R:3 frame=T 48=T |=T Written=T by=T MDAnalysis=T XYZWriter=T (release=T 2.4.3)=T pbc="F F F"
H       -0.28880000      -6.54303000      -5.51631000
O       -0.76581000      -5.94047000      -4.94021000
H       -1.68397000      -5.86606000      -5.30057000
H       -0.00569000      -4.67066000      -6.58766000
O        0.14518000      -4.69816000      -7.54659000
H       -0.62693000      -5.20196000      -7.88416000
