6
Properties=species:S:1:pos:R:3 frame=T 11=T |=T Written=T by=T MDAnalysis=T XYZWriter=T (release=T 2.4.3)=T pbc="F F F"
H      -11.08091000      -8.59660000       3.15633000
O      -10.39290000      -9.21338000       2.84855000
H       -9.86836000      -9.37277000       3.63442000
H      -10.48839000      -6.76028000       1.59515000
O       -9.57081000      -6.92136000       1.85396000
H       -9.55584000      -7.85949000       2.13222000
