6
Properties=species:S:1:pos:R:3 frame=T 31=T |=T Written=T by=T MDAnalysis=T XYZWriter=T (release=T 2.4.3)=T pbc="F F F"
H       -2.03373000      15.78111000       0.93244000
O       -2.87267000      16.22978000       1.14091000
H       -3.55392000      15.65845000       0.82328000
H       -1.92672000      19.38988000       0.58337000
O       -2.85729000      19.30897000       0.71438000
H       -2.95952000      18.45595000       1.18014000
