6
Properties=species:S:1:pos:R:3 frame=T 51=T |=T Written=T by=T MDAnalysis=T XYZWriter=T (release=T 2.4.3)=T pbc="F F F"
H       -6.24482000      15.34248000      -1.86979000
O       -6.97324000      15.37014000      -1.25746000
H       -7.25794000      14.43941000      -1.23519000
H       -5.49322000      16.34838000      -4.37670000
O       -5.38695000      15.53346000      -3.85420000
H       -5.29213000      14.89175000      -4.55567000
