6
Properties=species:S:1:pos:R:3 frame=T 9=T |=T Written=T by=T MDAnalysis=T XYZWriter=T (release=T 2.4.3)=T pbc="F F F"
H      -17.61582000      -3.28036000     -17.45937000
O      -17.29812000      -3.60976000     -16.60192000
H      -17.88807000      -4.33959000     -16.37758000
H      -17.46130000      -6.65499000     -14.50295000
O      -17.08034000      -5.88650000     -14.95106000
H      -16.68581000      -5.40120000     -14.21878000
