6
Properties=species:S:1:pos:R:3 frame=T 32=T |=T Written=T by=T MDAnalysis=T XYZWriter=T (release=T 2.4.3)=T pbc="F F F"
H        5.77874000      -3.85872000       8.59330000
O        6.13035000      -4.75122000       8.48192000
H        7.02915000      -4.65379000       8.85954000
H        5.58949000      -8.12679000       8.71270000
O        4.93759000      -7.58551000       8.26274000
H        5.32288000      -6.71592000       8.21822000
