6
Properties=species:S:1:pos:R:3 frame=T 25=T |=T Written=T by=T MDAnalysis=T XYZWriter=T (release=T 2.4.3)=T pbc="F F F"
H       16.94740000      -7.50481000     -15.51838000
O       16.84259000      -7.27647000     -16.46693000
H       16.15746000      -6.59954000     -16.47417000
H       16.43036000      -9.38436000     -17.33702000
O       15.74447000      -9.74631000     -17.92710000
H       16.19661000     -10.03858000     -18.71132000
