6
Properties=species:S:1:pos:R:3 frame=T 41=T |=T Written=T by=T MDAnalysis=T XYZWriter=T (release=T 2.4.3)=T pbc="F F F"
H       11.15891000       5.04827000       6.21019000
O       11.26731000       4.35656000       5.54510000
H       10.37464000       4.14567000       5.28380000
H       13.70597000       1.89570000       5.52325000
O       13.72002000       2.70902000       5.01373000
H       13.09262000       3.29031000       5.50980000
