6
Properties=species:S:1:pos:R:3 frame=T 48=T |=T Written=T by=T MDAnalysis=T XYZWriter=T (release=T 2.4.3)=T pbc="F F F"
H       16.17307000       4.71009000      12.24745000
O       15.98358000       5.62618000      12.48043000
H       16.77847000       5.88529000      12.94771000
H       18.96198000       5.22628000      13.80701000
O       18.07066000       4.91499000      13.71642000
H       18.05727000       4.12843000      13.17354000
