6
Properties=species:S:1:pos:R:3 frame=T 7=T |=T Written=T by=T MDAnalysis=T XYZWriter=T (release=T 2.4.3)=T pbc="F F F"
H      -14.16393000      12.07284000      -8.24162000
O      -13.30372000      12.28045000      -7.87634000
H      -12.85796000      11.41779000      -7.81859000
H      -11.65543000       9.02453000      -7.87571000
O      -11.46493000       9.90753000      -7.57469000
H      -10.57218000       9.83873000      -7.22169000
