6
Properties=species:S:1:pos:R:3 frame=T 53=T |=T Written=T by=T MDAnalysis=T XYZWriter=T (release=T 2.4.3)=T pbc="F F F"
H       -8.32708000     -11.28536000      18.44275000
O       -8.36624000     -12.14829000      18.89275000
H       -8.73610000     -12.73561000      18.23338000
H       -6.57978000     -12.14810000      16.79093000
O       -7.41358000     -12.18961000      16.33714000
H       -7.58342000     -13.12577000      16.24345000
