6
Properties=species:S:1:pos:R:3 frame=T 1=T |=T Written=T by=T MDAnalysis=T XYZWriter=T (release=T 2.4.3)=T pbc="F F F"
H      -12.31898000       8.19911000      17.47613000
O      -11.87258000       8.90067000      17.97459000
H      -12.15798000       8.71082000      18.87545000
H      -14.16373000       8.83291000      16.27081000
O      -14.36340000       9.50321000      16.97505000
H      -13.49304000       9.78012000      17.22374000
