6
Properties=species:S:1:pos:R:3 frame=T 26=T |=T Written=T by=T MDAnalysis=T XYZWriter=T (release=T 2.4.3)=T pbc="F F F"
H       -9.85942000       2.88950000      16.17333000
O       -9.97417000       3.78708000      15.81149000
H       -9.07421000       4.01826000      15.58016000
H      -10.42748000       4.01552000      12.96503000
O      -10.14217000       3.19686000      13.38060000
H      -10.17161000       3.38855000      14.32399000
