6
Properties=species:S:1:pos:R:3 frame=T 7=T |=T Written=T by=T MDAnalysis=T XYZWriter=T (release=T 2.4.3)=T pbc="F F F"
H       17.19913000       2.27592000       7.20530000
O       16.74799000       3.13733000       7.24021000
H       16.25555000       3.09383000       6.41682000
H       17.13921000       1.14714000       4.80007000
O       18.11729000       1.17515000       4.74266000
H       18.43231000       1.37669000       5.61075000
