6
Properties=species:S:1:pos:R:3 frame=T 20=T |=T Written=T by=T MDAnalysis=T XYZWriter=T (release=T 2.4.3)=T pbc="F F F"
H       15.32967000     -12.67374000       5.93396000
O       16.22738000     -12.46878000       6.24014000
H       16.30145000     -11.50225000       5.99217000
H       17.47087000     -10.84357000       4.92996000
O       17.21650000     -10.05238000       5.41302000
H       17.49997000     -10.19238000       6.30735000
