6
Properties=species:S:1:pos:R:3 frame=T 29=T |=T Written=T by=T MDAnalysis=T XYZWriter=T (release=T 2.4.3)=T pbc="F F F"
H      -10.45385000      17.42328000      -1.17458000
O      -10.45962000      17.42176000      -2.11749000
H       -9.58561000      17.04693000      -2.31581000
H      -10.45866000      14.32003000      -1.61830000
O      -10.28484000      14.80517000      -2.45455000
H      -10.63413000      15.68079000      -2.30632000
