6
Properties=species:S:1:pos:R:3 frame=T 33=T |=T Written=T by=T MDAnalysis=T XYZWriter=T (release=T 2.4.3)=T pbc="F F F"
H      -10.19692000      16.33430000      14.39688000
O       -9.95912000      17.20303000      14.65329000
H       -9.82217000      17.65926000      13.83146000
H       -8.48454000      19.01905000      11.85918000
O       -9.06976000      18.25679000      11.93106000
H       -9.07208000      17.92614000      11.03221000
