6
Properties=species:S:1:pos:R:3 frame=T 40=T |=T Written=T by=T MDAnalysis=T XYZWriter=T (release=T 2.4.3)=T pbc="F F F"
H       13.80110000     -16.67842000       7.95884000
O       13.09084000     -16.75746000       7.31242000
H       12.55341000     -15.95109000       7.41110000
H       15.07067000     -17.40062000      10.40495000
O       15.16151000     -17.03967000       9.51244000
H       16.08699000     -16.94464000       9.29599000
