6
Properties=species:S:1:pos:R:3 frame=T 0=T |=T Written=T by=T MDAnalysis=T XYZWriter=T (release=T 2.4.3)=T pbc="F F F"
H      -14.88784000     -18.83275000     -13.22124000
O      -15.36951000     -18.66392000     -14.01765000
H      -15.18944000     -17.71445000     -14.19732000
H      -13.11143000     -16.91321000     -12.46941000
O      -12.75032000     -17.44126000     -11.74536000
H      -13.13584000     -18.31070000     -11.86579000
