6
Properties=species:S:1:pos:R:3 frame=T 4=T |=T Written=T by=T MDAnalysis=T XYZWriter=T (release=T 2.4.3)=T pbc="F F F"
H       11.13274000       5.79462000     -18.54127000
O       11.63234000       6.36692000     -17.97156000
H       11.57695000       5.92823000     -17.12075000
H        9.02728000       4.94003000     -18.18352000
O        8.31241000       4.93997000     -17.50135000
H        8.61922000       5.58949000     -16.85672000
