6
Properties=species:S:1:pos:R:3 frame=T 20=T |=T Written=T by=T MDAnalysis=T XYZWriter=T (release=T 2.4.3)=T pbc="F F F"
H      -10.22790000      -4.60088000     -17.84762000
O      -10.19542000      -5.23492000     -17.12581000
H       -9.35170000      -5.62025000     -17.27377000
H       -7.77808000      -3.79194000     -18.19390000
O       -7.85121000      -3.39523000     -19.05751000
H       -8.36660000      -4.03819000     -19.57538000
