6
Properties=species:S:1:pos:R:3 frame=T 32=T |=T Written=T by=T MDAnalysis=T XYZWriter=T (release=T 2.4.3)=T pbc="F F F"
H       10.58103000     -10.66790000     -14.94492000
O       10.80100000      -9.77590000     -14.73494000
H       10.80383000      -9.32330000     -15.58161000
H        9.92031000      -8.44066000     -17.03732000
O       10.70293000      -8.98372000     -17.19884000
H       10.37753000      -9.81431000     -17.55500000
