6
Properties=species:S:1:pos:R:3 frame=T 17=T |=T Written=T by=T MDAnalysis=T XYZWriter=T (release=T 2.4.3)=T pbc="F F F"
H       -9.87045000     -13.07993000      18.21954000
O      -10.14030000     -13.86969000      17.74333000
H      -10.31501000     -13.46895000      16.87897000
H       -6.43984000     -12.24497000      18.69263000
O       -6.92815000     -12.94851000      18.21986000
H       -7.78884000     -12.95206000      18.66609000
