6
Properties=species:S:1:pos:R:3 frame=T 4=T |=T Written=T by=T MDAnalysis=T XYZWriter=T (release=T 2.4.3)=T pbc="F F F"
H        6.27611000     -17.18587000     -11.56349000
O        6.50213000     -17.63176000     -10.72885000
H        5.66523000     -18.03062000     -10.46235000
H        3.98306000     -16.13194000     -11.40621000
O        3.47429000     -16.93854000     -11.49712000
H        3.57063000     -17.39525000     -10.66263000
