6
Properties=species:S:1:pos:R:3 frame=T 6=T |=T Written=T by=T MDAnalysis=T XYZWriter=T (release=T 2.4.3)=T pbc="F F F"
H      -12.68686000      -0.07856000       3.91876000
O      -12.28688000      -0.96980000       3.90219000
H      -11.37139000      -0.80242000       4.09672000
H      -12.41170000       1.87586000       4.61085000
O      -12.20478000       2.21114000       3.72716000
H      -11.35547000       1.83905000       3.45539000
