6
Properties=species:S:1:pos:R:3 frame=T 35=T |=T Written=T by=T MDAnalysis=T XYZWriter=T (release=T 2.4.3)=T pbc="F F F"
H        6.65442000      -0.10554000      14.68836000
O        6.22396000      -0.99641000      14.70042000
H        5.27200000      -0.81746000      14.61819000
H        8.34529000      -2.91374000      16.18764000
O        7.71570000      -3.51881000      15.79032000
H        7.19880000      -2.88731000      15.25749000
