6
Properties=species:S:1:pos:R:3 frame=T 22=T |=T Written=T by=T MDAnalysis=T XYZWriter=T (release=T 2.4.3)=T pbc="F F F"
H       17.24114000      -3.24263000      -7.85709000
O       17.06598000      -3.88136000      -7.15394000
H       17.51487000      -3.53117000      -6.35649000
H       14.74906000      -3.47241000      -8.03276000
O       14.39187000      -2.69350000      -8.55657000
H       13.95502000      -2.11777000      -7.92867000
