6
Properties=species:S:1:pos:R:3 frame=T 30=T |=T Written=T by=T MDAnalysis=T XYZWriter=T (release=T 2.4.3)=T pbc="F F F"
H       -3.37187000      -2.51118000      14.78975000
O       -3.89974000      -2.16603000      14.06278000
H       -3.85567000      -2.90918000      13.44040000
H       -6.04974000      -0.72375000      15.33549000
O       -6.61048000      -1.46851000      15.11377000
H       -6.37973000      -1.68784000      14.18132000
