6
Properties=species:S:1:pos:R:3 frame=T 53=T |=T Written=T by=T MDAnalysis=T XYZWriter=T (release=T 2.4.3)=T pbc="F F F"
H       -3.91314000      18.03861000      16.75094000
O       -3.85218000      18.63477000      15.97921000
H       -4.19261000      18.07271000      15.28320000
H       -4.30174000      16.24321000      15.08520000
O       -4.70025000      15.51048000      15.55853000
H       -4.17581000      15.37801000      16.34208000
