6
Properties=species:S:1:pos:R:3 frame=T 13=T |=T Written=T by=T MDAnalysis=T XYZWriter=T (release=T 2.4.3)=T pbc="F F F"
H        2.00238000     -16.82682000       2.95638000
O        1.62395000     -16.91406000       3.85689000
H        2.37262000     -17.09238000       4.43080000
H        2.44241000     -14.67786000       2.46872000
O        1.49257000     -14.64654000       2.42053000
H        1.22089000     -14.97742000       3.27215000
