6
Properties=species:S:1:pos:R:3 frame=T 37=T |=T Written=T by=T MDAnalysis=T XYZWriter=T (release=T 2.4.3)=T pbc="F F F"
H       -4.79815000       7.57709000      16.88314000
O       -4.88699000       6.61765000      16.96268000
H       -5.63937000       6.54723000      17.55023000
H       -7.08818000       6.26304000      16.34960000
O       -7.34290000       6.38862000      15.43133000
H       -6.83329000       7.18547000      15.18385000
