6
Properties=species:S:1:pos:R:3 frame=T 49=T |=T Written=T by=T MDAnalysis=T XYZWriter=T (release=T 2.4.3)=T pbc="F F F"
H        8.60478000       9.21906000      -8.82679000
O        7.77451000       8.91678000      -8.42225000
H        7.12750000       9.13402000      -9.12339000
H        9.96541000       9.11579000     -10.03069000
O        9.39307000       9.68153000     -10.56561000
H        9.56857000      10.55222000     -10.17133000
