6
Properties=species:S:1:pos:R:3 frame=T 24=T |=T Written=T by=T MDAnalysis=T XYZWriter=T (release=T 2.4.3)=T pbc="F F F"
H        2.44608000     -17.36535000       5.65865000
O        1.87528000     -18.10799000       5.42929000
H        1.25419000     -18.15101000       6.15891000
H        0.52301000     -16.13249000       4.04542000
O        0.80857000     -15.21000000       3.96840000
H        1.20345000     -15.02313000       4.81983000
