6
Properties=species:S:1:pos:R:3 frame=T 9=T |=T Written=T by=T MDAnalysis=T XYZWriter=T (release=T 2.4.3)=T pbc="F F F"
H       -1.52096000      18.08545000      -7.90738000
O       -1.54331000      17.28882000      -7.35271000
H       -2.12189000      17.50235000      -6.62995000
H       -4.00455000      18.24111000      -8.69626000
O       -3.46211000      19.01593000      -8.81304000
H       -3.36073000      19.37386000      -7.92896000
