6
Properties=species:S:1:pos:R:3 frame=T 24=T |=T Written=T by=T MDAnalysis=T XYZWriter=T (release=T 2.4.3)=T pbc="F F F"
H       -0.60763000      17.82702000      -8.51106000
O       -0.90720000      17.04839000      -8.02701000
H       -1.85419000      17.06714000      -8.06074000
H       -3.73339000      17.37234000      -7.04030000
O       -3.67742000      17.79136000      -6.19037000
H       -3.85185000      17.07616000      -5.57978000
