6
Properties=species:S:1:pos:R:3 frame=T 46=T |=T Written=T by=T MDAnalysis=T XYZWriter=T (release=T 2.4.3)=T pbc="F F F"
H       16.71998000      -3.98957000     -17.82661000
O       16.08496000      -3.53451000     -18.39159000
H       16.54691000      -2.73889000     -18.67099000
H       14.20500000      -2.95345000     -16.81431000
O       14.73069000      -2.14512000     -16.66462000
H       15.64850000      -2.34501000     -16.80441000
