6
Properties=species:S:1:pos:R:3 frame=T 36=T |=T Written=T by=T MDAnalysis=T XYZWriter=T (release=T 2.4.3)=T pbc="F F F"
H        0.94917000      -8.92254000     -17.47161000
O        1.70999000      -9.46172000     -17.70024000
H        1.38683000      -9.86145000     -18.49441000
H        0.23418000     -10.87193000     -17.70570000
O        0.07612000     -11.66316000     -18.18557000
H       -0.71800000     -11.49385000     -18.68795000
