6
Properties=species:S:1:pos:R:3 frame=T 10=T |=T Written=T by=T MDAnalysis=T XYZWriter=T (release=T 2.4.3)=T pbc="F F F"
H       11.34402000      -5.23025000       6.10106000
O       11.09851000      -5.76923000       5.32999000
H       11.29720000      -6.67315000       5.61278000
H       12.42038000      -5.98990000       7.16071000
O       11.94871000      -5.82653000       7.97838000
H       11.42276000      -6.62704000       8.04938000
