6
Properties=species:S:1:pos:R:3 frame=T 6=T |=T Written=T by=T MDAnalysis=T XYZWriter=T (release=T 2.4.3)=T pbc="F F F"
H       16.82698000      14.74924000     -12.86569000
O       17.68429000      15.07859000     -13.08652000
H       18.29717000      14.36146000     -12.83341000
H       18.14507000      17.33773000     -13.87327000
O       17.96058000      18.21992000     -14.14630000
H       18.69179000      18.43430000     -14.72973000
