6
Properties=species:S:1:pos:R:3 frame=T 33=T |=T Written=T by=T MDAnalysis=T XYZWriter=T (release=T 2.4.3)=T pbc="F F F"
H      -12.94591000       1.37140000     -18.50038000
O      -12.35557000       1.14496000     -17.80915000
H      -12.41049000       1.88675000     -17.20395000
H      -15.35589000       0.85767000     -18.86120000
O      -15.91742000       0.37025000     -18.27125000
H      -16.75625000       0.85460000     -18.28355000
