6
Properties=species:S:1:pos:R:3 frame=T 34=T |=T Written=T by=T MDAnalysis=T XYZWriter=T (release=T 2.4.3)=T pbc="F F F"
H       -3.25492000      15.60663000      15.65884000
O       -3.98280000      15.21172000      16.18005000
H       -3.80886000      15.56294000      17.08416000
H       -5.84983000      15.16335000      19.01931000
O       -6.34236000      15.12803000      18.20042000
H       -7.05575000      14.48824000      18.33858000
