6
Properties=species:S:1:pos:R:3 frame=T 29=T |=T Written=T by=T MDAnalysis=T XYZWriter=T (release=T 2.4.3)=T pbc="F F F"
H      -15.30123000      16.15418000     -10.55844000
O      -15.57220000      15.96975000     -11.46420000
H      -14.85752000      15.36830000     -11.73674000
H      -14.12023000      12.28907000     -12.64143000
O      -14.65609000      12.95353000     -12.26897000
H      -14.93727000      13.53229000     -12.98652000
