6
Properties=species:S:1:pos:R:3 frame=T 9=T |=T Written=T by=T MDAnalysis=T XYZWriter=T (release=T 2.4.3)=T pbc="F F F"
H      -12.36137000      -1.98897000      -5.18703000
O      -13.29364000      -1.81129000      -4.98140000
H      -13.53407000      -1.12762000      -5.60025000
H      -13.34046000      -1.41237000      -2.78623000
O      -13.25427000      -1.61983000      -1.86064000
H      -12.69153000      -0.90493000      -1.53419000
