6
Properties=species:S:1:pos:R:3 frame=T 29=T |=T Written=T by=T MDAnalysis=T XYZWriter=T (release=T 2.4.3)=T pbc="F F F"
H      -17.52767000       6.42988000       6.94724000
O      -17.06542000       7.24536000       6.69185000
H      -17.03443000       7.74931000       7.52731000
H      -18.01812000       3.81642000       7.09136000
O      -18.63633000       4.57473000       7.04924000
H      -19.23746000       4.32420000       6.32785000
