6
Properties=species:S:1:pos:R:3 frame=T 38=T |=T Written=T by=T MDAnalysis=T XYZWriter=T (release=T 2.4.3)=T pbc="F F F"
H        6.82791000       0.82290000      12.88255000
O        7.51860000       1.45537000      13.04220000
H        7.05653000       2.29322000      12.89755000
H        6.03755000      -1.71196000      11.73299000
O        6.48098000      -1.21252000      12.43814000
H        6.34508000      -1.75446000      13.23468000
