6
Properties=species:S:1:pos:R:3 frame=T 36=T |=T Written=T by=T MDAnalysis=T XYZWriter=T (release=T 2.4.3)=T pbc="F F F"
H      -17.00483000     -17.28311000       2.24514000
O      -17.18092000     -18.13784000       2.60827000
H      -17.65084000     -18.57297000       1.89843000
H      -17.45926000     -16.32427000      -0.02431000
O      -17.08883000     -15.43970000       0.04144000
H      -16.25047000     -15.59865000       0.48904000
