6
Properties=species:S:1:pos:R:3 frame=T 24=T |=T Written=T by=T MDAnalysis=T XYZWriter=T (release=T 2.4.3)=T pbc="F F F"
H       17.05814000       4.31417000      -3.15275000
O       17.73872000       4.93784000      -3.45857000
H       17.30196000       5.81025000      -3.40207000
H       16.69015000       6.42659000      -6.57713000
O       17.28494000       7.03487000      -6.14886000
H       17.04826000       7.01467000      -5.19662000
