6
Properties=species:S:1:pos:R:3 frame=T 12=T |=T Written=T by=T MDAnalysis=T XYZWriter=T (release=T 2.4.3)=T pbc="F F F"
H      -14.25348000      16.48128000     -14.86822000
O      -14.82311000      17.21202000     -15.19774000
H      -14.26801000      17.98686000     -15.15211000
H      -14.97743000      18.56192000     -12.50991000
O      -15.45856000      17.72742000     -12.69309000
H      -15.36094000      17.52856000     -13.66424000
