6
Properties=species:S:1:pos:R:3 frame=T 23=T |=T Written=T by=T MDAnalysis=T XYZWriter=T (release=T 2.4.3)=T pbc="F F F"
H      -13.89675000      12.51145000     -18.69407000
O      -14.18352000      11.65006000     -19.01023000
H      -14.85070000      11.41529000     -18.33084000
H      -12.37671000      14.45093000     -18.72732000
O      -12.13441000      13.90012000     -18.00061000
H      -11.25077000      13.64330000     -18.25396000
