6
Properties=species:S:1:pos:R:3 frame=T 0=T |=T Written=T by=T MDAnalysis=T XYZWriter=T (release=T 2.4.3)=T pbc="F F F"
H      -16.82660000      14.96033000      14.60886000
O      -16.68394000      15.37473000      13.75276000
H      -15.91665000      15.95059000      13.88468000
H      -18.79856000      16.35874000      15.44742000
O      -18.47844000      16.80070000      16.23347000
H      -17.92893000      17.51979000      15.95806000
