6
Properties=species:S:1:pos:R:3 frame=T 38=T |=T Written=T by=T MDAnalysis=T XYZWriter=T (release=T 2.4.3)=T pbc="F F F"
H      -14.24153000      10.40678000       4.13902000
O      -13.30759000      10.13480000       4.19976000
H      -13.16535000       9.78943000       5.10653000
H      -13.88546000      11.38676000       2.30083000
O      -13.58925000      11.99463000       1.60865000
H      -14.12824000      11.63396000       0.87095000
