6
Properties=species:S:1:pos:R:3 frame=T 12=T |=T Written=T by=T MDAnalysis=T XYZWriter=T (release=T 2.4.3)=T pbc="F F F"
H       -9.98122000      -8.09083000      14.45079000
O      -10.85469000      -7.69411000      14.22419000
H      -11.30369000      -8.41789000      13.82783000
H      -11.87585000      -9.60341000      12.60912000
O      -11.02440000     -10.00408000      12.92312000
H      -11.33065000     -10.59912000      13.62227000
