6
Properties=species:S:1:pos:R:3 frame=T 52=T |=T Written=T by=T MDAnalysis=T XYZWriter=T (release=T 2.4.3)=T pbc="F F F"
H       -6.45625000       3.10166000       0.52979000
O       -5.53120000       2.84027000       0.58198000
H       -5.14181000       3.40326000       1.28008000
H       -2.58233000       3.83394000       2.74217000
O       -3.12006000       3.66287000       1.93998000
H       -2.81602000       4.41243000       1.44438000
