6
Properties=species:S:1:pos:R:3 frame=T 25=T |=T Written=T by=T MDAnalysis=T XYZWriter=T (release=T 2.4.3)=T pbc="F F F"
H       -4.86529000      -3.13439000     -15.56922000
O       -4.89087000      -2.52306000     -16.33006000
H       -5.83476000      -2.40454000     -16.40184000
H       -3.31789000      -4.63759000     -17.21498000
O       -4.19084000      -4.61228000     -17.63194000
H       -4.62684000      -3.86812000     -17.17873000
