6
Properties=species:S:1:pos:R:3 frame=T 11=T |=T Written=T by=T MDAnalysis=T XYZWriter=T (release=T 2.4.3)=T pbc="F F F"
H      -16.97349000      -3.71277000       5.79391000
O      -16.49701000      -4.44599000       6.23895000
H      -17.13264000      -4.74724000       6.91843000
H      -14.93961000      -3.06726000       5.19646000
O      -14.16163000      -2.52818000       5.30446000
H      -14.24541000      -1.90370000       4.56713000
