6
Properties=species:S:1:pos:R:3 frame=T 23=T |=T Written=T by=T MDAnalysis=T XYZWriter=T (release=T 2.4.3)=T pbc="F F F"
H       16.66381000      16.26340000      14.78275000
O       15.96670000      16.50151000      15.40068000
H       15.74153000      17.41928000      15.24309000
H       18.16460000      18.52909000      14.18321000
O       17.38552000      18.73384000      13.65118000
H       17.25279000      17.93925000      13.10193000
