6
Properties=species:S:1:pos:R:3 frame=T 32=T |=T Written=T by=T MDAnalysis=T XYZWriter=T (release=T 2.4.3)=T pbc="F F F"
H      -14.69558000      -2.20464000      -6.31522000
O      -15.06489000      -2.01670000      -5.43334000
H      -15.99664000      -1.91172000      -5.61034000
H      -12.31904000      -2.03899000      -7.67018000
O      -12.89615000      -2.77300000      -7.34598000
H      -12.24138000      -3.34148000      -6.84924000
