6
Properties=species:S:1:pos:R:3 frame=T 26=T |=T Written=T by=T MDAnalysis=T XYZWriter=T (release=T 2.4.3)=T pbc="F F F"
H       -1.75742000       9.52487000     -12.75933000
O       -0.90802000       9.50114000     -12.29374000
H       -0.93110000      10.29393000     -11.74868000
H       -1.26069000      10.40597000     -14.74657000
O       -1.62650000      10.27254000     -15.62229000
H       -1.88136000      11.16851000     -15.83931000
