6
Properties=species:S:1:pos:R:3 frame=T 0=T |=T Written=T by=T MDAnalysis=T XYZWriter=T (release=T 2.4.3)=T pbc="F F F"
H       -1.99780000      -8.54555000      -8.41021000
O       -2.36700000      -8.08429000      -9.16856000
H       -1.70258000      -8.24718000      -9.84419000
H       -3.56365000     -10.34777000     -10.19060000
O       -3.84305000     -10.26636000      -9.25155000
H       -3.54743000      -9.35018000      -9.09708000
