6
Properties=species:S:1:pos:R:3 frame=T 12=T |=T Written=T by=T MDAnalysis=T XYZWriter=T (release=T 2.4.3)=T pbc="F F F"
H        6.83571000      16.39321000      -1.31484000
O        6.12321000      16.81553000      -0.81855000
H        5.45502000      16.13403000      -0.86825000
H        6.39937000      19.33934000       1.62164000
O        6.55658000      19.24335000       0.68901000
H        6.08185000      18.42257000       0.47944000
