6
Properties=species:S:1:pos:R:3 frame=T 44=T |=T Written=T by=T MDAnalysis=T XYZWriter=T (release=T 2.4.3)=T pbc="F F F"
H        4.73764000     -12.61631000       9.32008000
O        5.45701000     -11.98956000       9.24561000
H        5.01375000     -11.13409000       9.16623000
H        4.15607000     -11.10256000      11.93147000
O        4.10035000     -12.03645000      11.73685000
H        4.76540000     -12.11311000      11.02528000
