6
Properties=species:S:1:pos:R:3 frame=T 46=T |=T Written=T by=T MDAnalysis=T XYZWriter=T (release=T 2.4.3)=T pbc="F F F"
H        4.39735000      18.29606000      11.66068000
O        4.03121000      18.78761000      12.41864000
H        3.39987000      19.38267000      11.98121000
H        1.48104000      19.33845000      10.37297000
O        1.70899000      18.44149000      10.04544000
H        1.17924000      17.88392000      10.63208000
