6
Properties=species:S:1:pos:R:3 frame=T 40=T |=T Written=T by=T MDAnalysis=T XYZWriter=T (release=T 2.4.3)=T pbc="F F F"
H        2.65129000     -10.89775000      -3.42068000
O        1.89130000     -10.30517000      -3.26011000
H        1.14028000     -10.91667000      -3.15224000
H       -1.53163000     -12.49182000      -3.44343000
O       -1.15409000     -11.63788000      -3.72566000
H       -0.56762000     -11.85354000      -4.44658000
