6
Properties=species:S:1:pos:R:3 frame=T 40=T |=T Written=T by=T MDAnalysis=T XYZWriter=T (release=T 2.4.3)=T pbc="F F F"
H        0.36128000      17.51834000      13.68192000
O        0.45294000      16.57368000      13.96453000
H        0.07259000      16.12941000      13.19697000
H        1.91564000      16.16527000      12.68047000
O        2.18426000      16.09145000      11.74790000
H        1.53923000      15.42410000      11.43609000
