6
Properties=species:S:1:pos:R:3 frame=T 20=T |=T Written=T by=T MDAnalysis=T XYZWriter=T (release=T 2.4.3)=T pbc="F F F"
H       -0.22663000     -14.68977000      -3.23103000
O       -1.01343000     -14.89598000      -3.72718000
H       -1.18512000     -14.12735000      -4.25416000
H       -0.29838000     -12.17849000      -3.15972000
O       -1.25794000     -12.12292000      -3.15156000
H       -1.52469000     -12.00772000      -4.06518000
