6
Properties=species:S:1:pos:R:3 frame=T 26=T |=T Written=T by=T MDAnalysis=T XYZWriter=T (release=T 2.4.3)=T pbc="F F F"
H       -0.22679000      -7.05879000     -14.04586000
O        0.41668000      -7.50281000     -14.62710000
H       -0.13846000      -8.03142000     -15.19375000
H       -1.94596000      -6.20222000     -11.82322000
O       -1.74242000      -6.35067000     -12.77435000
H       -2.38786000      -5.74125000     -13.17206000
