6
Properties=species:S:1:pos:R:3 frame=T 2=T |=T Written=T by=T MDAnalysis=T XYZWriter=T (release=T 2.4.3)=T pbc="F F F"
H        3.23979000       6.96651000       8.34009000
O        2.35682000       6.96781000       7.92777000
H        2.49869000       7.58905000       7.20020000
H        1.38603000       6.81764000       5.37089000
O        2.30408000       6.49751000       5.26370000
H        2.53646000       6.15993000       6.11710000
