6
Properties=species:S:1:pos:R:3 frame=T 41=T |=T Written=T by=T MDAnalysis=T XYZWriter=T (release=T 2.4.3)=T pbc="F F F"
H        1.83177000      -6.72400000       2.66341000
O        1.59613000      -6.21534000       1.86551000
H        2.06910000      -6.62440000       1.13680000
H        1.88220000      -4.08778000       2.47581000
O        2.03602000      -3.38350000       3.11750000
H        1.16858000      -2.94536000       3.25846000
