6
Properties=species:S:1:pos:R:3 frame=T 44=T |=T Written=T by=T MDAnalysis=T XYZWriter=T (release=T 2.4.3)=T pbc="F F F"
H       16.35987000      -8.29501000     -10.17135000
O       16.23962000      -8.47779000      -9.24874000
H       15.66512000      -9.24555000      -9.28587000
H       15.96835000      -9.04585000      -5.68177000
O       16.66736000      -8.65674000      -6.22766000
H       16.37713000      -8.97202000      -7.07942000
