6
Properties=species:S:1:pos:R:3 frame=T 50=T |=T Written=T by=T MDAnalysis=T XYZWriter=T (release=T 2.4.3)=T pbc="F F F"
H        1.14557000     -15.87946000     -13.04665000
O        1.19462000     -16.80096000     -13.21068000
H        2.13551000     -16.91965000     -13.25023000
H        3.17922000     -17.09883000     -11.25669000
O        3.87217000     -17.07012000     -11.93103000
H        3.74700000     -16.19727000     -12.27856000
