6
Properties=species:S:1:pos:R:3 frame=T 7=T |=T Written=T by=T MDAnalysis=T XYZWriter=T (release=T 2.4.3)=T pbc="F F F"
H        7.48949000     -17.39417000      18.38044000
O        7.09507000     -18.27765000      18.20245000
H        7.84992000     -18.89580000      18.21245000
H        6.42646000     -18.51665000      14.45884000
O        6.25194000     -17.90775000      15.20623000
H        6.97804000     -18.01497000      15.80544000
