6
Properties=species:S:1:pos:R:3 frame=T 52=T |=T Written=T by=T MDAnalysis=T XYZWriter=T (release=T 2.4.3)=T pbc="F F F"
H       17.79855000      -6.49528000       3.74028000
O       17.99340000      -5.71303000       4.29734000
H       18.00748000      -6.04940000       5.20028000
H       18.45478000      -8.37151000       3.40022000
O       17.70019000      -8.17794000       2.82362000
H       16.94939000      -8.14962000       3.43662000
