6
Properties=species:S:1:pos:R:3 frame=T 22=T |=T Written=T by=T MDAnalysis=T XYZWriter=T (release=T 2.4.3)=T pbc="F F F"
H       15.66656000     -17.04741000     -10.33142000
O       14.92500000     -17.04175000      -9.71149000
H       14.14480000     -17.05044000     -10.29202000
H       11.13856000     -17.18038000      -8.95542000
O       11.76310000     -17.26225000      -9.68185000
H       11.23147000     -17.36996000     -10.47274000
