6
Properties=species:S:1:pos:R:3 frame=T 44=T |=T Written=T by=T MDAnalysis=T XYZWriter=T (release=T 2.4.3)=T pbc="F F F"
H        4.15607000     -11.10256000      11.93147000
O        4.10035000     -12.03645000      11.73685000
H        4.76540000     -12.11311000      11.02528000
H        4.53667000     -11.30089000      14.58096000
O        5.21793000     -11.70725000      14.04376000
H        4.77036000     -11.84188000      13.17480000
