6
Properties=species:S:1:pos:R:3 frame=T 3=T |=T Written=T by=T MDAnalysis=T XYZWriter=T (release=T 2.4.3)=T pbc="F F F"
H       11.94307000      -0.20928000      18.03119000
O       11.09287000      -0.17997000      17.61972000
H       11.03459000      -0.99882000      17.17631000
H       13.14207000      -2.37524000      17.67200000
O       13.00039000      -3.17699000      17.16275000
H       13.80522000      -3.66044000      17.33932000
