6
Properties=species:S:1:pos:R:3 frame=T 36=T |=T Written=T by=T MDAnalysis=T XYZWriter=T (release=T 2.4.3)=T pbc="F F F"
H       -9.05349000      -0.35770000     -18.35936000
O       -9.40318000      -0.88685000     -19.08984000
H      -10.11540000      -0.35788000     -19.43214000
H       -9.75683000       2.02785000     -18.11996000
O       -9.86673000       2.46246000     -18.98831000
H      -10.64346000       2.01641000     -19.33700000
