6
Properties=species:S:1:pos:R:3 frame=T 6=T |=T Written=T by=T MDAnalysis=T XYZWriter=T (release=T 2.4.3)=T pbc="F F F"
H      -12.63908000      18.34617000       5.74537000
O      -12.11098000      17.54099000       5.83275000
H      -12.46781000      16.87565000       5.19968000
H      -14.67027000      17.14345000       7.35669000
O      -15.04366000      17.29831000       6.49146000
H      -14.30740000      17.26263000       5.89086000
