6
Properties=species:S:1:pos:R:3 frame=T 15=T |=T Written=T by=T MDAnalysis=T XYZWriter=T (release=T 2.4.3)=T pbc="F F F"
H       -1.94092000      10.26009000       4.15285000
O       -1.34503000       9.82557000       3.50813000
H       -0.52908000      10.34292000       3.57373000
H       -0.28011000      12.43469000       4.37963000
O        0.46150000      11.88861000       4.12511000
H        0.64028000      11.40595000       4.94927000
