6
Properties=species:S:1:pos:R:3 frame=T 29=T |=T Written=T by=T MDAnalysis=T XYZWriter=T (release=T 2.4.3)=T pbc="F F F"
H       -3.02281000      11.21888000     -17.11412000
O       -3.33871000      12.03955000     -17.51756000
H       -4.26988000      11.83321000     -17.71598000
H       -3.38009000       9.02639000     -16.35868000
O       -2.67099000       9.40037000     -16.92130000
H       -3.10558000       9.60041000     -17.78704000
