6
Properties=species:S:1:pos:R:3 frame=T 43=T |=T Written=T by=T MDAnalysis=T XYZWriter=T (release=T 2.4.3)=T pbc="F F F"
H        8.43781000       5.54005000     -17.97660000
O        7.56629000       5.31278000     -17.61242000
H        6.92708000       5.33778000     -18.33730000
H        4.80412000       5.57849000     -18.61842000
O        4.25265000       5.69899000     -17.83122000
H        4.22310000       6.67140000     -17.75531000
