6
Properties=species:S:1:pos:R:3 frame=T 17=T |=T Written=T by=T MDAnalysis=T XYZWriter=T (release=T 2.4.3)=T pbc="F F F"
H        5.08094000      16.57494000     -12.80900000
O        4.55580000      15.79209000     -13.00023000
H        5.25326000      15.17641000     -13.23721000
H        6.94624000      18.71426000     -12.39096000
O        6.12320000      18.29170000     -12.19719000
H        5.93728000      18.64211000     -11.31194000
