6
Properties=species:S:1:pos:R:3 frame=T 0=T |=T Written=T by=T MDAnalysis=T XYZWriter=T (release=T 2.4.3)=T pbc="F F F"
H      -16.43705000      19.32146000       4.31382000
O      -15.71923000      18.72678000       4.57993000
H      -16.11090000      17.87753000       4.37273000
H      -13.50146000      18.25449000       4.64228000
O      -12.89821000      17.51423000       4.76946000
H      -12.77507000      17.51052000       5.73352000
