6
Properties=species:S:1:pos:R:3 frame=T 26=T |=T Written=T by=T MDAnalysis=T XYZWriter=T (release=T 2.4.3)=T pbc="F F F"
H       -1.07238000      -0.62518000     -16.96157000
O       -1.09497000      -1.58268000     -17.08708000
H       -1.70968000      -1.72552000     -17.82130000
H       -0.83105000       0.89343000     -18.34538000
O       -1.66466000       0.80607000     -17.91211000
H       -1.56044000       1.39292000     -17.15812000
