6
Properties=species:S:1:pos:R:3 frame=T 49=T |=T Written=T by=T MDAnalysis=T XYZWriter=T (release=T 2.4.3)=T pbc="F F F"
H       -3.66443000       5.56137000       4.90855000
O       -4.03597000       4.89567000       4.29567000
H       -3.99075000       5.30110000       3.40372000
H       -5.16620000       6.22129000       1.91588000
O       -4.93659000       5.53823000       1.27348000
H       -5.29975000       5.86195000       0.44076000
