6
Properties=species:S:1:pos:R:3 frame=T 28=T |=T Written=T by=T MDAnalysis=T XYZWriter=T (release=T 2.4.3)=T pbc="F F F"
H       17.26933000      -3.30044000       0.66844000
O       18.04454000      -3.62103000       0.19499000
H       18.74240000      -3.11657000       0.63024000
H       17.92343000      -2.11314000       3.30949000
O       17.46310000      -1.52669000       2.71619000
H       18.13325000      -0.98182000       2.31619000
