6
Properties=species:S:1:pos:R:3 frame=T 31=T |=T Written=T by=T MDAnalysis=T XYZWriter=T (release=T 2.4.3)=T pbc="F F F"
H       15.72299000      -6.30493000     -10.73749000
O       15.65593000      -6.11341000      -9.78212000
H       14.67564000      -6.09090000      -9.62398000
H       17.36286000      -5.84961000     -13.10628000
O       17.68118000      -6.32241000     -12.31026000
H       17.84541000      -5.55032000     -11.74311000
