6
Properties=species:S:1:pos:R:3 frame=T 17=T |=T Written=T by=T MDAnalysis=T XYZWriter=T (release=T 2.4.3)=T pbc="F F F"
H        1.73371000     -14.71627000     -15.79548000
O        1.33710000     -14.43752000     -16.63564000
H        0.77912000     -15.20432000     -16.91417000
H        2.15471000     -16.33557000     -14.29268000
O        1.92233000     -15.39609000     -14.27088000
H        0.96090000     -15.35378000     -14.22369000
