6
Properties=species:S:1:pos:R:3 frame=T 4=T |=T Written=T by=T MDAnalysis=T XYZWriter=T (release=T 2.4.3)=T pbc="F F F"
H       -7.26506000      14.14513000      -8.06404000
O       -6.51426000      13.60472000      -8.36561000
H       -6.02406000      13.41615000      -7.56450000
H       -4.32641000      15.28494000      -8.53912000
O       -4.85685000      15.31029000      -9.34191000
H       -5.48283000      14.54734000      -9.18336000
