6
Properties=species:S:1:pos:R:3 frame=T 37=T |=T Written=T by=T MDAnalysis=T XYZWriter=T (release=T 2.4.3)=T pbc="F F F"
H      -13.02577000      -5.36538000      -6.72329000
O      -12.76393000      -6.18394000      -6.26731000
H      -12.04109000      -6.52577000      -6.82830000
H      -11.02390000      -3.99945000      -5.15846000
O      -10.83962000      -4.92373000      -4.94408000
H      -11.49250000      -5.35085000      -5.50081000
