6
Properties=species:S:1:pos:R:3 frame=T 46=T |=T Written=T by=T MDAnalysis=T XYZWriter=T (release=T 2.4.3)=T pbc="F F F"
H        3.67591000      10.02121000      13.64978000
O        2.80931000       9.83502000      13.27822000
H        2.89538000       9.98938000      12.33888000
H        2.01986000      10.68270000      11.04399000
O        2.80121000      10.31196000      10.62126000
H        3.49810000      10.94724000      10.75763000
