6
Properties=species:S:1:pos:R:3 frame=T 3=T |=T Written=T by=T MDAnalysis=T XYZWriter=T (release=T 2.4.3)=T pbc="F F F"
H       17.71546000     -13.25063000     -11.42677000
O       18.48356000     -12.73276000     -11.19848000
H       18.23081000     -11.79115000     -11.25381000
H       15.92442000     -12.10963000     -11.01128000
O       15.85179000     -12.64897000     -11.81163000
H       15.52226000     -12.01214000     -12.47346000
