6
Properties=species:S:1:pos:R:3 frame=T 13=T |=T Written=T by=T MDAnalysis=T XYZWriter=T (release=T 2.4.3)=T pbc="F F F"
H       12.85778000       4.01952000      -8.81326000
O       13.64945000       3.57592000      -9.01059000
H       14.32115000       4.24699000      -8.86637000
H       16.87242000       2.64290000      -6.96803000
O       16.60152000       3.35830000      -7.54584000
H       15.65271000       3.40666000      -7.46940000
