6
Properties=species:S:1:pos:R:3 frame=T 22=T |=T Written=T by=T MDAnalysis=T XYZWriter=T (release=T 2.4.3)=T pbc="F F F"
H        1.69216000      13.05555000       1.90948000
O        1.03045000      12.41502000       1.62592000
H        0.34959000      12.93417000       1.15333000
H        1.45748000      10.55297000       2.87327000
O        2.36916000      10.63986000       3.09664000
H        2.59476000       9.84329000       3.52503000
