6
Properties=species:S:1:pos:R:3 frame=T 16=T |=T Written=T by=T MDAnalysis=T XYZWriter=T (release=T 2.4.3)=T pbc="F F F"
H       13.66574000      -4.69755000     -12.96611000
O       14.39631000      -5.05798000     -12.47376000
H       13.90569000      -5.27903000     -11.71666000
H       11.84655000      -5.44390000     -13.13224000
O       11.84779000      -4.47911000     -13.31503000
H       11.95807000      -4.43420000     -14.23532000
