6
Properties=species:S:1:pos:R:3 frame=T 49=T |=T Written=T by=T MDAnalysis=T XYZWriter=T (release=T 2.4.3)=T pbc="F F F"
H        0.79390000      -6.27651000      -7.77357000
O        1.22945000      -7.11477000      -7.55319000
H        2.17637000      -6.86572000      -7.54371000
H        2.01513000      -7.65665000     -10.09257000
O        1.56396000      -8.45821000      -9.86130000
H        1.43111000      -8.41075000      -8.89589000
