6
Properties=species:S:1:pos:R:3 frame=T 25=T |=T Written=T by=T MDAnalysis=T XYZWriter=T (release=T 2.4.3)=T pbc="F F F"
H      -18.67315000       5.98464000      -4.68018000
O      -17.81825000       5.95696000      -5.17750000
H      -17.30082000       5.26284000      -4.73023000
H      -16.73757000       6.72202000      -2.96621000
O      -16.18908000       7.28296000      -2.39500000
H      -16.67503000       7.35326000      -1.57994000
