6
Properties=species:S:1:pos:R:3 frame=T 1=T |=T Written=T by=T MDAnalysis=T XYZWriter=T (release=T 2.4.3)=T pbc="F F F"
H       12.55233000     -17.20808000      -3.86169000
O       13.22724000     -16.53144000      -3.65664000
H       14.01523000     -17.05945000      -3.56198000
H       14.76562000     -18.87364000      -3.24311000
O       14.91072000     -18.53843000      -2.35624000
H       15.39861000     -17.75128000      -2.55769000
