6
Properties=species:S:1:pos:R:3 frame=T 33=T |=T Written=T by=T MDAnalysis=T XYZWriter=T (release=T 2.4.3)=T pbc="F F F"
H       -0.45665000       1.11958000       9.42939000
O       -0.22332000       2.05937000       9.30961000
H        0.74284000       1.99859000       9.27263000
H       -0.50264000       3.61924000      10.82794000
O       -1.06126000       4.31693000      11.12990000
H       -0.49228000       4.89649000      11.65957000
