6
Properties=species:S:1:pos:R:3 frame=T 30=T |=T Written=T by=T MDAnalysis=T XYZWriter=T (release=T 2.4.3)=T pbc="F F F"
H       15.66754000     -17.01044000      -6.43235000
O       16.46029000     -16.73423000      -6.90255000
H       17.18547000     -17.16315000      -6.41536000
H       17.53090000     -15.77035000      -5.11610000
O       17.18753000     -15.52608000      -4.25121000
H       16.32323000     -15.21294000      -4.50574000
