6
Properties=species:S:1:pos:R:3 frame=T 46=T |=T Written=T by=T MDAnalysis=T XYZWriter=T (release=T 2.4.3)=T pbc="F F F"
H        8.53971000      10.03257000       3.28039000
O        8.53051000      10.50443000       2.45696000
H        7.61376000      10.82795000       2.41767000
H        9.53530000      10.13654000       4.59930000
O        9.67873000       9.18905000       4.61420000
H       10.18131000       9.05008000       3.79497000
