6
Properties=species:S:1:pos:R:3 frame=T 22=T |=T Written=T by=T MDAnalysis=T XYZWriter=T (release=T 2.4.3)=T pbc="F F F"
H      -15.30124000       5.26931000     -10.79444000
O      -15.97672000       5.50281000     -10.13476000
H      -16.56185000       6.11951000     -10.61407000
H      -18.20216000       4.99414000     -11.94431000
O      -17.69353000       4.21183000     -12.24908000
H      -17.14138000       4.09127000     -11.47244000
