6
Properties=species:S:1:pos:R:3 frame=T 35=T |=T Written=T by=T MDAnalysis=T XYZWriter=T (release=T 2.4.3)=T pbc="F F F"
H        9.73178000       7.30638000     -15.76350000
O        9.91872000       7.51165000     -16.68295000
H        9.77934000       8.49896000     -16.75459000
H       10.55187000       5.71335000     -18.11507000
O       10.66041000       4.96978000     -18.70474000
H       11.15820000       5.33373000     -19.45020000
