6
Properties=species:S:1:pos:R:3 frame=T 21=T |=T Written=T by=T MDAnalysis=T XYZWriter=T (release=T 2.4.3)=T pbc="F F F"
H      -12.05898000      13.54840000       6.72751000
O      -12.44398000      14.30718000       6.28909000
H      -12.87928000      14.81721000       7.00865000
H      -10.85229000      13.82027000       8.17771000
O      -11.38647000      13.00667000       8.30836000
H      -12.20361000      13.43143000       8.58128000
