6
Properties=species:S:1:pos:R:3 frame=T 16=T |=T Written=T by=T MDAnalysis=T XYZWriter=T (release=T 2.4.3)=T pbc="F F F"
H      -15.11114000      -9.21517000       8.89526000
O      -14.53819000      -8.44231000       9.07402000
H      -14.17178000      -8.31084000       8.18288000
H      -14.25464000     -10.59397000       7.82587000
O      -13.33650000     -10.79207000       7.70688000
H      -12.88168000     -10.03865000       8.09422000
