6
Properties=species:S:1:pos:R:3 frame=T 51=T |=T Written=T by=T MDAnalysis=T XYZWriter=T (release=T 2.4.3)=T pbc="F F F"
H      -11.70678000     -13.35923000      15.26326000
O      -12.44764000     -13.91438000      15.50664000
H      -13.18880000     -13.29160000      15.69748000
H      -13.62251000     -11.77657000      14.91670000
O      -13.12674000     -11.57438000      14.13003000
H      -13.13634000     -12.38656000      13.62849000
