6
Properties=species:S:1:pos:R:3 frame=T 3=T |=T Written=T by=T MDAnalysis=T XYZWriter=T (release=T 2.4.3)=T pbc="F F F"
H       -0.87328000     -11.87718000       4.31746000
O       -1.31725000     -12.51411000       3.75338000
H       -2.15204000     -12.62745000       4.25869000
H       -1.91811000     -12.62851000       6.27507000
O       -1.29595000     -13.31383000       6.55150000
H       -0.98502000     -13.59658000       5.69281000
