6
Properties=species:S:1:pos:R:3 frame=T 3=T |=T Written=T by=T MDAnalysis=T XYZWriter=T (release=T 2.4.3)=T pbc="F F F"
H       11.53883000       6.90932000      -3.07324000
O       11.41940000       7.53714000      -2.38241000
H       10.76401000       8.14354000      -2.80680000
H       15.39838000       7.82918000      -2.73376000
O       14.90771000       7.11311000      -2.33105000
H       14.09112000       7.26744000      -2.80296000
