6
Properties=species:S:1:pos:R:3 frame=T 22=T |=T Written=T by=T MDAnalysis=T XYZWriter=T (release=T 2.4.3)=T pbc="F F F"
H       -1.20655000      18.66786000      12.82165000
O       -2.04452000      18.79854000      13.26431000
H       -2.26580000      17.90999000      13.51699000
H       -3.04297000      18.82434000      11.92409000
O       -3.62716000      18.59601000      11.18352000
H       -4.01759000      17.74524000      11.47425000
