6
Properties=species:S:1:pos:R:3 frame=T 32=T |=T Written=T by=T MDAnalysis=T XYZWriter=T (release=T 2.4.3)=T pbc="F F F"
H        5.91634000     -14.31844000      -8.03346000
O        5.08234000     -14.38226000      -7.55445000
H        5.10182000     -13.62957000      -6.99839000
H        7.29672000     -14.23426000      -7.11037000
O        7.62025000     -13.86555000      -7.94229000
H        8.54422000     -14.04125000      -7.91652000
