6
Properties=species:S:1:pos:R:3 frame=T 34=T |=T Written=T by=T MDAnalysis=T XYZWriter=T (release=T 2.4.3)=T pbc="F F F"
H      -14.25476000       0.18064000     -16.44883000
O      -14.90590000       0.87007000     -16.45755000
H      -15.00822000       1.11612000     -15.51710000
H      -12.29307000       2.24447000     -15.70942000
O      -12.82802000       2.62475000     -16.41109000
H      -13.56110000       1.98486000     -16.51333000
