6
Properties=species:S:1:pos:R:3 frame=T 9=T |=T Written=T by=T MDAnalysis=T XYZWriter=T (release=T 2.4.3)=T pbc="F F F"
H        3.43392000      14.03860000      18.36098000
O        2.73878000      13.38125000      18.41746000
H        2.10085000      13.78077000      18.98648000
H        2.18922000      11.86209000      17.16563000
O        2.44717000      11.08272000      16.66605000
H        1.63645000      10.62444000      16.51096000
