6
Properties=species:S:1:pos:R:3 frame=T 18=T |=T Written=T by=T MDAnalysis=T XYZWriter=T (release=T 2.4.3)=T pbc="F F F"
H       -8.44619000       1.18800000       7.47588000
O       -8.54209000       0.42612000       8.06471000
H       -8.82847000       0.89083000       8.87245000
H      -10.20987000       0.83381000       7.68769000
O      -11.01098000       1.13442000       7.22392000
H      -11.22034000       0.43844000       6.57021000
