6
Properties=species:S:1:pos:R:3 frame=T 14=T |=T Written=T by=T MDAnalysis=T XYZWriter=T (release=T 2.4.3)=T pbc="F F F"
H       -7.91986000     -12.77583000      16.14127000
O       -7.74376000     -11.84834000      16.04077000
H       -6.91250000     -11.83346000      15.59701000
H       -9.87417000     -12.08819000      14.14428000
O       -9.02534000     -12.14998000      13.69342000
H       -8.36913000     -12.09836000      14.43830000
