6
Properties=species:S:1:pos:R:3 frame=T 39=T |=T Written=T by=T MDAnalysis=T XYZWriter=T (release=T 2.4.3)=T pbc="F F F"
H       16.91549000       4.47999000      -7.61730000
O       17.54309000       4.38033000      -8.33010000
H       18.15439000       3.68185000      -7.96465000
H       17.14302000       1.61310000      -7.52967000
O       16.74172000       1.31429000      -6.71744000
H       17.37741000       1.56163000      -6.02771000
