6
Properties=species:S:1:pos:R:3 frame=T 43=T |=T Written=T by=T MDAnalysis=T XYZWriter=T (release=T 2.4.3)=T pbc="F F F"
H      -16.04800000       0.66134000      -8.08348000
O      -16.36427000      -0.07248000      -8.61161000
H      -15.59915000      -0.64676000      -8.74722000
H      -15.31448000      -0.83124000      -5.46795000
O      -15.61868000      -0.01698000      -5.87072000
H      -16.05503000       0.46312000      -5.15052000
