6
Properties=species:S:1:pos:R:3 frame=T 49=T |=T Written=T by=T MDAnalysis=T XYZWriter=T (release=T 2.4.3)=T pbc="F F F"
H        1.18344000      17.49076000      14.07099000
O        0.25122000      17.76539000      14.18311000
H       -0.26878000      17.15897000      13.67333000
H       -0.30551000      18.29471000      16.17338000
O       -0.17955000      18.68732000      17.02778000
H       -1.04807000      18.85938000      17.36951000
