6
Properties=species:S:1:pos:R:3 frame=T 14=T |=T Written=T by=T MDAnalysis=T XYZWriter=T (release=T 2.4.3)=T pbc="F F F"
H       14.68352000      17.04579000      -8.17178000
O       15.50157000      16.52458000      -8.25445000
H       16.04514000      17.16300000      -8.70696000
H       15.17445000      13.54111000      -6.34702000
O       15.61670000      14.39340000      -6.39691000
H       15.55232000      14.68490000      -7.30433000
