6
Properties=species:S:1:pos:R:3 frame=T 49=T |=T Written=T by=T MDAnalysis=T XYZWriter=T (release=T 2.4.3)=T pbc="F F F"
H      -10.02499000     -11.70636000      11.68370000
O       -9.93284000     -11.93862000      12.61557000
H       -9.12918000     -11.43909000      12.86186000
H       -6.42865000     -10.48563000      14.16593000
O       -7.28143000     -10.76529000      13.77914000
H       -7.90063000     -10.23569000      14.33322000
