6
Properties=species:S:1:pos:R:3 frame=T 2=T |=T Written=T by=T MDAnalysis=T XYZWriter=T (release=T 2.4.3)=T pbc="F F F"
H      -15.13373000       2.28527000      -4.56892000
O      -14.35124000       2.62381000      -5.00457000
H      -13.96618000       1.88428000      -5.51564000
H      -14.75276000       0.06933000      -5.08809000
O      -14.94892000      -0.46041000      -5.87807000
H      -14.18861000      -0.29788000      -6.45508000
