6
Properties=species:S:1:pos:R:3 frame=T 19=T |=T Written=T by=T MDAnalysis=T XYZWriter=T (release=T 2.4.3)=T pbc="F F F"
H      -14.33806000     -11.48212000       5.25838000
O      -13.45625000     -11.85759000       5.08827000
H      -12.96130000     -11.49868000       5.85668000
H      -15.73997000     -13.77228000       5.43505000
O      -14.95768000     -13.69502000       6.03729000
H      -14.33277000     -13.13258000       5.56531000
