6
Properties=species:S:1:pos:R:3 frame=T 5=T |=T Written=T by=T MDAnalysis=T XYZWriter=T (release=T 2.4.3)=T pbc="F F F"
H      -11.66810000      15.59345000      -4.34469000
O      -11.01671000      16.24768000      -4.71118000
H      -10.90956000      15.92093000      -5.61211000
H      -12.48102000      17.25938000      -5.32109000
O      -13.34761000      17.65924000      -5.17823000
H      -13.68236000      17.14556000      -4.43534000
