6
Properties=species:S:1:pos:R:3 frame=T 25=T |=T Written=T by=T MDAnalysis=T XYZWriter=T (release=T 2.4.3)=T pbc="F F F"
H      -12.74278000      -9.62034000       2.92260000
O      -12.00030000      -9.14188000       2.49922000
H      -12.49318000      -8.61690000       1.83716000
H      -12.62235000      -7.82016000       3.44894000
O      -13.34379000      -7.20985000       3.71396000
H      -12.91331000      -6.34391000       3.80125000
