6
Properties=species:S:1:pos:R:3 frame=T 15=T |=T Written=T by=T MDAnalysis=T XYZWriter=T (release=T 2.4.3)=T pbc="F F F"
H        1.46239000       0.93718000      -3.84781000
O        1.06673000       0.97760000      -4.70011000
H        0.14160000       1.17941000      -4.51712000
H       -0.94375000      -0.78735000      -5.20260000
O       -0.32271000      -1.43950000      -4.82484000
H        0.50309000      -0.92415000      -4.71981000
