6
Properties=species:S:1:pos:R:3 frame=T 24=T |=T Written=T by=T MDAnalysis=T XYZWriter=T (release=T 2.4.3)=T pbc="F F F"
H      -16.48453000      -7.97224000      14.55685000
O      -16.51473000      -8.34603000      13.67042000
H      -16.85373000      -7.55572000      13.17424000
H      -15.38371000      -6.28689000      14.72460000
O      -14.43492000      -6.29710000      14.68274000
H      -14.24950000      -6.42768000      13.73156000
