6
Properties=species:S:1:pos:R:3 frame=T 13=T |=T Written=T by=T MDAnalysis=T XYZWriter=T (release=T 2.4.3)=T pbc="F F F"
H        6.42848000       3.15457000       3.28158000
O        5.66072000       3.37810000       3.78675000
H        5.57340000       4.32862000       3.59619000
H        6.80544000       2.15995000       2.00930000
O        7.66154000       2.22307000       2.47803000
H        7.56840000       1.50317000       3.10963000
