6
Properties=species:S:1:pos:R:3 frame=T 20=T |=T Written=T by=T MDAnalysis=T XYZWriter=T (release=T 2.4.3)=T pbc="F F F"
H       12.82027000       7.84493000     -16.58264000
O       12.21827000       7.18338000     -16.22905000
H       12.26277000       6.47243000     -16.85062000
H       11.38447000       8.94040000     -17.80615000
O       10.69443000       9.38927000     -17.30138000
H       10.64789000       8.83794000     -16.49882000
