6
Properties=species:S:1:pos:R:3 frame=T 50=T |=T Written=T by=T MDAnalysis=T XYZWriter=T (release=T 2.4.3)=T pbc="F F F"
H      -18.94266000      13.42153000      -9.82462000
O      -18.74392000      14.14285000      -9.21445000
H      -17.84767000      13.97676000      -8.92831000
H      -16.20790000      12.99984000     -10.62358000
O      -16.22339000      13.30659000      -9.72465000
H      -16.31916000      14.26553000      -9.83670000
