6
Properties=species:S:1:pos:R:3 frame=T 1=T |=T Written=T by=T MDAnalysis=T XYZWriter=T (release=T 2.4.3)=T pbc="F F F"
H        5.88735000      13.19176000     -14.67929000
O        6.11084000      13.89190000     -14.05178000
H        6.27759000      13.44851000     -13.25147000
H        7.25401000      17.11380000     -14.20658000
O        7.68726000      16.38493000     -14.68699000
H        7.43612000      15.61746000     -14.14388000
