6
Properties=species:S:1:pos:R:3 frame=T 36=T |=T Written=T by=T MDAnalysis=T XYZWriter=T (release=T 2.4.3)=T pbc="F F F"
H        2.97127000       0.04481000       0.50602000
O        3.48196000       0.45914000      -0.22674000
H        4.36669000       0.35674000       0.09890000
H        3.74701000      -1.02701000      -0.95065000
O        3.54641000      -1.83730000      -1.41734000
H        3.86180000      -2.53671000      -0.83321000
