6
Properties=species:S:1:pos:R:3 frame=T 27=T |=T Written=T by=T MDAnalysis=T XYZWriter=T (release=T 2.4.3)=T pbc="F F F"
H      -19.07511000       6.28775000       8.78860000
O      -18.26280000       5.90815000       8.44987000
H      -18.33607000       4.96321000       8.70202000
H      -18.36800000       7.64773000      10.23993000
O      -18.64752000       8.46381000      10.69582000
H      -18.38885000       8.28490000      11.60485000
