6
Properties=species:S:1:pos:R:3 frame=T 34=T |=T Written=T by=T MDAnalysis=T XYZWriter=T (release=T 2.4.3)=T pbc="F F F"
H       -1.45134000       1.93231000      19.10555000
O       -1.02093000       1.23587000      18.60657000
H       -0.31170000       1.71569000      18.19246000
H       -2.80871000       2.08636000      16.46423000
O       -2.67733000       2.92460000      16.94431000
H       -1.82285000       2.84290000      17.41083000
