6
Properties=species:S:1:pos:R:3 frame=T 42=T |=T Written=T by=T MDAnalysis=T XYZWriter=T (release=T 2.4.3)=T pbc="F F F"
H       11.05819000      -0.30340000      18.77248000
O       11.31302000       0.52216000      18.36037000
H       12.27403000       0.40564000      18.22926000
H       10.22459000      -1.02212000      16.56726000
O       10.80649000      -1.73108000      16.20087000
H       11.38276000      -2.02682000      16.90440000
