6
Properties=species:S:1:pos:R:3 frame=T 1=T |=T Written=T by=T MDAnalysis=T XYZWriter=T (release=T 2.4.3)=T pbc="F F F"
H       -8.78607000      -1.60185000      -2.17623000
O       -9.49820000      -1.32143000      -1.61217000
H      -10.08338000      -0.89368000      -2.22168000
H       -9.20657000      -1.54462000       0.48570000
O       -8.80762000      -1.53133000       1.33081000
H       -8.39967000      -2.38300000       1.40021000
