6
Properties=species:S:1:pos:R:3 frame=T 16=T |=T Written=T by=T MDAnalysis=T XYZWriter=T (release=T 2.4.3)=T pbc="F F F"
H      -13.67335000      -5.15312000      11.66716000
O      -12.77824000      -5.13060000      12.00394000
H      -12.31144000      -5.80774000      11.47383000
H      -15.62098000      -3.71411000      10.34003000
O      -14.65990000      -3.72837000      10.40167000
H      -14.43464000      -3.07180000       9.72782000
