6
Properties=species:S:1:pos:R:3 frame=T 49=T |=T Written=T by=T MDAnalysis=T XYZWriter=T (release=T 2.4.3)=T pbc="F F F"
H        4.45379000      15.46668000      -5.80000000
O        5.15471000      15.17879000      -5.18927000
H        5.17550000      14.22832000      -5.29777000
H        3.82668000      13.10203000      -4.24831000
O        3.38756000      12.59796000      -3.55313000
H        2.72205000      12.10015000      -4.05350000
