6
Properties=species:S:1:pos:R:3 frame=T 9=T |=T Written=T by=T MDAnalysis=T XYZWriter=T (release=T 2.4.3)=T pbc="F F F"
H       -7.98880000     -10.67720000     -18.75341000
O       -8.93004000     -10.53477000     -18.71824000
H       -9.25252000     -10.90135000     -17.89969000
H       -8.16573000      -8.50080000     -17.79029000
O       -8.62879000      -7.78021000     -18.22941000
H       -9.04305000      -8.20966000     -19.01902000
