6
Properties=species:S:1:pos:R:3 frame=T 14=T |=T Written=T by=T MDAnalysis=T XYZWriter=T (release=T 2.4.3)=T pbc="F F F"
H       -2.34393000     -18.33408000      -7.87247000
O       -2.86676000     -19.07765000      -8.21423000
H       -2.23920000     -19.45348000      -8.79896000
H       -4.36472000     -17.39315000      -9.87990000
O       -4.42245000     -16.49500000      -9.52758000
H       -3.52528000     -16.33007000      -9.18520000
