6
Properties=species:S:1:pos:R:3 frame=T 2=T |=T Written=T by=T MDAnalysis=T XYZWriter=T (release=T 2.4.3)=T pbc="F F F"
H       -7.84687000     -15.18343000      17.37944000
O       -7.16494000     -15.53274000      17.99306000
H       -6.65762000     -16.19870000      17.47391000
H       -5.96359000     -13.89068000      17.22419000
O       -6.24419000     -13.00984000      16.93696000
H       -7.19307000     -12.97888000      17.23207000
