6
Properties=species:S:1:pos:R:3 frame=T 20=T |=T Written=T by=T MDAnalysis=T XYZWriter=T (release=T 2.4.3)=T pbc="F F F"
H      -16.82544000      17.63999000      -6.88604000
O      -16.35318000      18.42185000      -6.60294000
H      -15.72281000      18.51725000      -7.32114000
H      -13.68044000      18.69960000      -9.07432000
O      -13.73627000      17.72751000      -8.96929000
H      -12.94695000      17.56927000      -8.46111000
