6
Properties=species:S:1:pos:R:3 frame=T 3=T |=T Written=T by=T MDAnalysis=T XYZWriter=T (release=T 2.4.3)=T pbc="F F F"
H       -8.81258000      18.24580000      10.20391000
O       -9.58029000      18.59036000       9.73816000
H       -9.72862000      19.47111000      10.15595000
H      -11.68472000      18.83077000       8.28890000
O      -12.04070000      18.02309000       7.88797000
H      -12.51647000      18.40938000       7.14499000
