6
Properties=species:S:1:pos:R:3 frame=T 21=T |=T Written=T by=T MDAnalysis=T XYZWriter=T (release=T 2.4.3)=T pbc="F F F"
H      -12.70940000     -17.53733000       0.86014000
O      -12.76619000     -17.79226000       1.80981000
H      -12.38933000     -18.63739000       1.84929000
H      -12.18283000     -17.50498000       5.26560000
O      -11.76960000     -18.00654000       4.57199000
H      -12.51455000     -18.49525000       4.18102000
