6
Properties=species:S:1:pos:R:3 frame=T 16=T |=T Written=T by=T MDAnalysis=T XYZWriter=T (release=T 2.4.3)=T pbc="F F F"
H      -14.69525000       1.65405000     -13.76461000
O      -13.85116000       1.69097000     -13.32898000
H      -13.22020000       1.79996000     -14.06301000
H      -15.35245000       1.78191000     -16.20708000
O      -15.45226000       2.14317000     -15.32452000
H      -14.93532000       2.96976000     -15.42482000
