6
Properties=species:S:1:pos:R:3 frame=T 42=T |=T Written=T by=T MDAnalysis=T XYZWriter=T (release=T 2.4.3)=T pbc="F F F"
H       -0.89397000     -13.80175000      16.95076000
O       -1.10904000     -12.86333000      17.12500000
H       -0.22121000     -12.50276000      17.32520000
H        1.55376000     -13.15364000      18.15392000
O        1.38736000     -12.26846000      17.90014000
H        1.75214000     -12.20042000      16.99180000
