6
Properties=species:S:1:pos:R:3 frame=T 10=T |=T Written=T by=T MDAnalysis=T XYZWriter=T (release=T 2.4.3)=T pbc="F F F"
H       -9.96415000       7.33191000       6.47773000
O      -10.75524000       7.31240000       5.96119000
H      -10.44686000       7.03536000       5.11791000
H      -12.37192000       8.71827000       5.69211000
O      -13.03639000       9.31620000       5.33977000
H      -12.62312000      10.20567000       5.36010000
