6
Properties=species:S:1:pos:R:3 frame=T 40=T |=T Written=T by=T MDAnalysis=T XYZWriter=T (release=T 2.4.3)=T pbc="F F F"
H       10.12735000      15.87970000      -8.65958000
O       10.52843000      15.02727000      -8.63530000
H       11.20575000      15.10338000      -9.32492000
H       11.85351000      14.49189000     -10.87057000
O       11.22949000      13.78692000     -11.13432000
H       10.70513000      13.53920000     -10.34674000
