6
Properties=species:S:1:pos:R:3 frame=T 10=T |=T Written=T by=T MDAnalysis=T XYZWriter=T (release=T 2.4.3)=T pbc="F F F"
H       -9.96311000     -17.93513000      -1.55227000
O       -9.36584000     -17.23144000      -1.82222000
H       -9.79929000     -16.42096000      -1.55657000
H       -9.07393000     -16.57169000       0.10543000
O       -9.05657000     -15.90610000       0.79925000
H       -9.21457000     -15.08017000       0.27524000
