6
Properties=species:S:1:pos:R:3 frame=T 3=T |=T Written=T by=T MDAnalysis=T XYZWriter=T (release=T 2.4.3)=T pbc="F F F"
H      -10.33107000     -16.49848000       0.94495000
O       -9.73172000     -16.18113000       1.63727000
H       -9.81087000     -16.88912000       2.29754000
H      -10.07748000     -17.99148000      -0.40810000
O      -10.84519000     -17.43694000      -0.46185000
H      -11.49940000     -17.94118000       0.04525000
