6
Properties=species:S:1:pos:R:3 frame=T 31=T |=T Written=T by=T MDAnalysis=T XYZWriter=T (release=T 2.4.3)=T pbc="F F F"
H        7.63920000       3.37867000      17.64230000
O        7.66316000       3.05936000      18.54538000
H        7.41435000       2.14350000      18.43471000
H        7.58175000       0.36135000      18.40657000
O        7.73421000       0.44008000      17.44660000
H        6.87702000       0.61169000      17.10589000
