6
Properties=species:S:1:pos:R:3 frame=T 0=T |=T Written=T by=T MDAnalysis=T XYZWriter=T (release=T 2.4.3)=T pbc="F F F"
H       15.07485000       3.77793000      -9.47430000
O       15.45258000       4.46348000     -10.00452000
H       16.32135000       4.51390000      -9.63751000
H       15.06055000       5.88960000      -8.87925000
O       14.65504000       6.27743000      -8.08689000
H       13.97829000       5.63897000      -7.84236000
