6
Properties=species:S:1:pos:R:3 frame=T 16=T |=T Written=T by=T MDAnalysis=T XYZWriter=T (release=T 2.4.3)=T pbc="F F F"
H       -5.57511000      -5.26419000      17.53051000
O       -5.31146000      -4.94622000      18.42880000
H       -4.37740000      -4.84106000      18.36081000
H       -6.06573000      -7.72832000      17.85360000
O       -5.31445000      -7.69488000      18.47660000
H       -5.28530000      -6.76787000      18.68904000
