6
Properties=species:S:1:pos:R:3 frame=T 1=T |=T Written=T by=T MDAnalysis=T XYZWriter=T (release=T 2.4.3)=T pbc="F F F"
H       10.30645000      13.61484000      -2.76997000
O        9.69722000      12.96096000      -2.47572000
H        9.03884000      13.48163000      -1.99936000
H        8.25587000      12.36186000      -4.30757000
O        7.42723000      12.02851000      -4.66833000
H        6.98858000      11.59567000      -3.91394000
