6
Properties=species:S:1:pos:R:3 frame=T 27=T |=T Written=T by=T MDAnalysis=T XYZWriter=T (release=T 2.4.3)=T pbc="F F F"
H       16.50455000       9.05805000     -15.34883000
O       16.07619000       8.18728000     -15.29704000
H       16.34731000       7.76911000     -16.13925000
H       17.14229000       7.44871000     -14.08902000
O       17.99864000       7.14931000     -13.72558000
H       18.60292000       7.57004000     -14.28838000
