6
Properties=species:S:1:pos:R:3 frame=T 12=T |=T Written=T by=T MDAnalysis=T XYZWriter=T (release=T 2.4.3)=T pbc="F F F"
H       16.48671000      -3.77463000      -0.96516000
O       17.37040000      -4.04463000      -1.11908000
H       17.29840000      -5.00650000      -1.21816000
H       14.80060000      -6.22478000      -0.53043000
O       15.26149000      -6.02826000       0.29621000
H       15.50540000      -5.11909000       0.08318000
