6
Properties=species:S:1:pos:R:3 frame=T 50=T |=T Written=T by=T MDAnalysis=T XYZWriter=T (release=T 2.4.3)=T pbc="F F F"
H      -14.83534000      -2.53896000      -7.05851000
O      -15.63791000      -2.95040000      -7.40773000
H      -15.35794000      -3.76703000      -7.80657000
H      -12.40140000      -2.31268000      -7.77050000
O      -12.78019000      -1.93747000      -8.59659000
H      -12.87635000      -2.68107000      -9.18657000
