6
Properties=species:S:1:pos:R:3 frame=T 11=T |=T Written=T by=T MDAnalysis=T XYZWriter=T (release=T 2.4.3)=T pbc="F F F"
H       12.77285000      17.10233000      -5.76020000
O       11.94448000      16.98170000      -5.32990000
H       11.68493000      16.04580000      -5.46004000
H        9.60925000      16.74667000      -6.81819000
O       10.20597000      17.35024000      -7.26927000
H       10.92626000      17.49969000      -6.62027000
