6
Properties=species:S:1:pos:R:3 frame=T 18=T |=T Written=T by=T MDAnalysis=T XYZWriter=T (release=T 2.4.3)=T pbc="F F F"
H       -5.01704000      -4.03165000      -6.62760000
O       -5.61570000      -3.39394000      -7.05784000
H       -6.48651000      -3.82625000      -7.23362000
H       -4.02811000      -5.33654000      -8.19158000
O       -3.82336000      -4.79616000      -8.96762000
H       -4.58615000      -4.20706000      -8.98732000
