6
Properties=species:S:1:pos:R:3 frame=T 37=T |=T Written=T by=T MDAnalysis=T XYZWriter=T (release=T 2.4.3)=T pbc="F F F"
H       10.71152000       5.70600000       9.29239000
O       10.23970000       6.39694000       8.84794000
H        9.45746000       6.58213000       9.41073000
H        9.76715000       4.95832000       8.00612000
O        9.47402000       4.12809000       7.57331000
H       10.11295000       3.53954000       7.95795000
