6
Properties=species:S:1:pos:R:3 frame=T 32=T |=T Written=T by=T MDAnalysis=T XYZWriter=T (release=T 2.4.3)=T pbc="F F F"
H       -6.28701000       9.92511000     -16.26106000
O       -5.38572000       9.74400000     -16.59850000
H       -4.85125000       9.66134000     -15.82024000
H       -7.76295000       9.84684000     -15.25575000
O       -8.07003000      10.28139000     -16.05074000
H       -8.04770000       9.53686000     -16.71101000
