6
Properties=species:S:1:pos:R:3 frame=T 30=T |=T Written=T by=T MDAnalysis=T XYZWriter=T (release=T 2.4.3)=T pbc="F F F"
H      -15.71031000     -12.80445000      11.20820000
O      -15.79322000     -12.49942000      10.30148000
H      -16.54131000     -11.87360000      10.35833000
H      -14.74572000     -11.32298000      10.87247000
O      -14.07222000     -10.65031000      10.95903000
H      -14.48682000      -9.99299000      11.52288000
