6
Properties=species:S:1:pos:R:3 frame=T 54=T |=T Written=T by=T MDAnalysis=T XYZWriter=T (release=T 2.4.3)=T pbc="F F F"
H      -10.58053000      -1.65723000       2.95324000
O       -9.90757000      -2.33603000       3.04918000
H      -10.24382000      -2.82711000       3.79059000
H       -7.29914000      -2.73126000       0.89472000
O       -7.35083000      -2.90087000       1.86523000
H       -7.97403000      -2.25108000       2.22333000
