6
Properties=species:S:1:pos:R:3 frame=T 51=T |=T Written=T by=T MDAnalysis=T XYZWriter=T (release=T 2.4.3)=T pbc="F F F"
H       -5.97811000     -13.89227000       7.19499000
O       -5.68693000     -13.88139000       6.26227000
H       -6.04722000     -14.66475000       5.86091000
H       -6.97923000     -13.48310000       9.62697000
O       -6.16076000     -13.37793000       9.13140000
H       -5.56627000     -12.98015000       9.77035000
