6
Properties=species:S:1:pos:R:3 frame=T 20=T |=T Written=T by=T MDAnalysis=T XYZWriter=T (release=T 2.4.3)=T pbc="F F F"
H       11.52292000      15.93834000      10.63516000
O       11.58170000      15.00659000      10.87026000
H       11.03258000      14.62406000      10.17419000
H       10.91404000      13.32415000      12.11236000
O       10.27840000      12.95315000      12.74792000
H       10.83773000      12.31121000      13.23292000
