6
Properties=species:S:1:pos:R:3 frame=T 2=T |=T Written=T by=T MDAnalysis=T XYZWriter=T (release=T 2.4.3)=T pbc="F F F"
H      -18.38352000       9.98966000       8.51336000
O      -18.82679000      10.46220000       7.78518000
H      -18.84423000       9.89959000       7.01136000
H      -17.49121000       9.44372000       4.43717000
O      -17.00992000       9.74270000       5.20856000
H      -17.20309000      10.70198000       5.23085000
