6
Properties=species:S:1:pos:R:3 frame=T 22=T |=T Written=T by=T MDAnalysis=T XYZWriter=T (release=T 2.4.3)=T pbc="F F F"
H      -18.47562000      -2.26010000      -0.77960000
O      -17.54130000      -2.34042000      -0.79733000
H      -17.22516000      -1.41382000      -0.80742000
H      -17.53622000      -1.72950000       1.97904000
O      -17.95098000      -2.57653000       1.88763000
H      -17.73765000      -2.82642000       0.98265000
