6
Properties=species:S:1:pos:R:3 frame=T 22=T |=T Written=T by=T MDAnalysis=T XYZWriter=T (release=T 2.4.3)=T pbc="F F F"
H       -3.99627000      14.21878000     -18.51249000
O       -3.93340000      14.65102000     -17.64796000
H       -3.49137000      13.97647000     -17.07449000
H       -4.24079000      11.48463000     -16.78958000
O       -3.80049000      11.63550000     -17.65528000
H       -4.44742000      12.19471000     -18.11143000
