6
Properties=species:S:1:pos:R:3 frame=T 0=T |=T Written=T by=T MDAnalysis=T XYZWriter=T (release=T 2.4.3)=T pbc="F F F"
H       16.94131000     -13.74743000      -0.94912000
O       17.60163000     -13.83657000      -1.66022000
H       17.72870000     -14.78823000      -1.71226000
H       16.27499000     -14.34548000      -2.77401000
O       15.87686000     -14.46665000      -3.64840000
H       16.31374000     -13.70944000      -4.11033000
