6
Properties=species:S:1:pos:R:3 frame=T 30=T |=T Written=T by=T MDAnalysis=T XYZWriter=T (release=T 2.4.3)=T pbc="F F F"
H      -10.54678000      -5.89610000       2.68403000
O      -10.55925000      -6.12983000       3.62079000
H       -9.95360000      -5.46178000       4.01130000
H      -11.45680000      -4.87544000       1.90171000
O      -11.48754000      -5.57797000       1.23516000
H      -12.41845000      -5.80543000       1.32574000
