6
Properties=species:S:1:pos:R:3 frame=T 6=T |=T Written=T by=T MDAnalysis=T XYZWriter=T (release=T 2.4.3)=T pbc="F F F"
H       -6.20296000       4.65900000       6.41063000
O       -5.61026000       4.09937000       5.89977000
H       -5.26898000       3.56345000       6.61662000
H       -6.08612000       3.72150000       8.46494000
O       -5.72141000       2.84837000       8.30425000
H       -4.98156000       2.84476000       8.94212000
