6
Properties=species:S:1:pos:R:3 frame=T 52=T |=T Written=T by=T MDAnalysis=T XYZWriter=T (release=T 2.4.3)=T pbc="F F F"
H      -18.43199000      -4.45087000      13.24138000
O      -18.98137000      -4.15438000      12.54057000
H      -18.79461000      -3.22777000      12.48575000
H      -18.16824000      -3.14834000      15.46857000
O      -18.64476000      -2.34287000      15.16922000
H      -18.35193000      -2.22587000      14.25510000
