6
Properties=species:S:1:pos:R:3 frame=T 14=T |=T Written=T by=T MDAnalysis=T XYZWriter=T (release=T 2.4.3)=T pbc="F F F"
H        2.59161000       3.95789000       6.61313000
O        1.76458000       4.36686000       6.84069000
H        1.74653000       4.35366000       7.78414000
H       -0.34282000       4.60872000       6.64330000
O       -1.28955000       4.47200000       6.75753000
H       -1.69389000       4.87074000       5.99331000
