6
Properties=species:S:1:pos:R:3 frame=T 4=T |=T Written=T by=T MDAnalysis=T XYZWriter=T (release=T 2.4.3)=T pbc="F F F"
H      -14.79522000     -14.37334000      12.32262000
O      -14.51513000     -13.74378000      13.01313000
H      -14.31275000     -14.30302000      13.75948000
H      -17.16525000     -13.18191000      12.17188000
O      -16.99738000     -13.07290000      13.12273000
H      -16.06590000     -13.29259000      13.14607000
