6
Properties=species:S:1:pos:R:3 frame=T 13=T |=T Written=T by=T MDAnalysis=T XYZWriter=T (release=T 2.4.3)=T pbc="F F F"
H       18.48864000      12.21993000      -6.76059000
O       18.41300000      11.54746000      -7.48408000
H       18.80246000      10.81357000      -6.98767000
H       17.37852000       9.04787000      -8.89832000
O       16.82622000       9.55145000      -9.49062000
H       16.95145000       9.06983000     -10.29613000
