6
Properties=species:S:1:pos:R:3 frame=T 33=T |=T Written=T by=T MDAnalysis=T XYZWriter=T (release=T 2.4.3)=T pbc="F F F"
H        0.70823000      10.43902000     -19.10246000
O        1.09811000       9.62059000     -18.81622000
H        0.55604000       9.32772000     -18.06142000
H        0.77086000       5.82811000     -18.07040000
O        1.19956000       5.67136000     -18.92345000
H        0.84651000       6.34934000     -19.51519000
