6
Properties=species:S:1:pos:R:3 frame=T 51=T |=T Written=T by=T MDAnalysis=T XYZWriter=T (release=T 2.4.3)=T pbc="F F F"
H       10.17734000      18.84308000     -16.59039000
O        9.74635000      18.10021000     -16.16012000
H       10.41846000      17.78901000     -15.55006000
H        6.77809000      17.85456000     -17.10696000
O        6.71404000      18.81087000     -16.94645000
H        5.93015000      18.97199000     -16.41799000
