6
Properties=species:S:1:pos:R:3 frame=T 42=T |=T Written=T by=T MDAnalysis=T XYZWriter=T (release=T 2.4.3)=T pbc="F F F"
H       11.86142000       1.72339000     -13.14757000
O       12.20762000       2.59865000     -12.89121000
H       12.51327000       3.02562000     -13.70592000
H       13.96187000       5.57489000     -15.32499000
O       13.37874000       5.10795000     -14.68971000
H       12.49915000       5.37348000     -14.96302000
