6
Properties=species:S:1:pos:R:3 frame=T 11=T |=T Written=T by=T MDAnalysis=T XYZWriter=T (release=T 2.4.3)=T pbc="F F F"
H       17.83142000      -6.40564000      -7.87470000
O       16.91527000      -6.45698000      -8.20196000
H       16.47798000      -5.64304000      -7.90190000
H       18.07602000      -4.46360000      -6.31542000
O       18.59505000      -4.65373000      -7.10856000
H       18.01599000      -4.40761000      -7.82430000
