6
Properties=species:S:1:pos:R:3 frame=T 12=T |=T Written=T by=T MDAnalysis=T XYZWriter=T (release=T 2.4.3)=T pbc="F F F"
H       14.80404000      12.68081000     -13.04645000
O       15.56521000      13.27272000     -12.93426000
H       15.81660000      13.17533000     -11.98830000
H       18.94481000      13.55312000     -13.53856000
O       18.91376000      12.74438000     -14.02239000
H       18.15222000      12.31969000     -13.56448000
