6
Properties=species:S:1:pos:R:3 frame=T 29=T |=T Written=T by=T MDAnalysis=T XYZWriter=T (release=T 2.4.3)=T pbc="F F F"
H      -16.89327000      -3.64909000     -12.73862000
O      -17.75880000      -3.34448000     -13.04469000
H      -17.54770000      -2.65559000     -13.65727000
H      -15.82688000      -2.40090000     -12.06398000
O      -15.57740000      -1.57702000     -12.52902000
H      -16.41990000      -1.20854000     -12.87769000
