6
Properties=species:S:1:pos:R:3 frame=T 8=T |=T Written=T by=T MDAnalysis=T XYZWriter=T (release=T 2.4.3)=T pbc="F F F"
H      -14.48885000       4.51395000       6.27983000
O      -13.55904000       4.40298000       5.99894000
H      -13.57773000       3.63724000       5.42754000
H      -10.70602000       2.06218000       5.05508000
O      -10.91108000       2.92718000       5.44282000
H      -11.56797000       2.68111000       6.12172000
