6
Properties=species:S:1:pos:R:3 frame=T 24=T |=T Written=T by=T MDAnalysis=T XYZWriter=T (release=T 2.4.3)=T pbc="F F F"
H        6.22503000       7.28404000     -16.40840000
O        6.97567000       7.43534000     -16.99838000
H        7.06108000       6.57751000     -17.40730000
H        8.32468000       4.09545000     -18.56418000
O        7.38768000       4.36578000     -18.43797000
H        7.22296000       4.28900000     -17.49914000
