6
Properties=species:S:1:pos:R:3 frame=T 14=T |=T Written=T by=T MDAnalysis=T XYZWriter=T (release=T 2.4.3)=T pbc="F F F"
H        4.12390000      17.99929000      -2.00410000
O        3.47852000      18.53550000      -2.46166000
H        3.18404000      17.98041000      -3.18547000
H        1.86303000      16.67952000      -0.80842000
O        1.34745000      16.99378000      -1.55110000
H        1.84804000      17.73220000      -1.90406000
