6
Properties=species:S:1:pos:R:3 frame=T 5=T |=T Written=T by=T MDAnalysis=T XYZWriter=T (release=T 2.4.3)=T pbc="F F F"
H        4.36580000      -3.43737000      11.35837000
O        3.80565000      -2.76844000      10.93579000
H        4.15829000      -2.62015000      10.05100000
H        5.70443000      -1.99990000       8.86108000
O        5.80008000      -2.95607000       8.77648000
H        4.91092000      -3.14120000       8.47372000
