6
Properties=species:S:1:pos:R:3 frame=T 23=T |=T Written=T by=T MDAnalysis=T XYZWriter=T (release=T 2.4.3)=T pbc="F F F"
H        1.26043000      -4.90776000     -14.03389000
O        1.44363000      -4.03453000     -14.34756000
H        0.63921000      -3.54551000     -14.23158000
H       -0.24756000      -6.34388000     -13.56830000
O        0.27331000      -6.65807000     -14.34032000
H        0.00138000      -6.11712000     -15.08180000
