6
Properties=species:S:1:pos:R:3 frame=T 46=T |=T Written=T by=T MDAnalysis=T XYZWriter=T (release=T 2.4.3)=T pbc="F F F"
H      -18.07965000      -5.40179000       3.63385000
O      -17.30699000      -4.94950000       3.23737000
H      -17.69191000      -4.41447000       2.55086000
H      -15.86541000      -6.63716000       3.41493000
O      -15.55985000      -7.47725000       3.04981000
H      -14.78135000      -7.22646000       2.53908000
