6
Properties=species:S:1:pos:R:3 frame=T 4=T |=T Written=T by=T MDAnalysis=T XYZWriter=T (release=T 2.4.3)=T pbc="F F F"
H       17.14393000      11.94761000     -17.26188000
O       17.91669000      11.73997000     -16.72969000
H       18.50435000      12.46319000     -16.93180000
H       18.15866000      14.75573000     -17.78003000
O       17.62044000      14.21000000     -18.37083000
H       18.23820000      13.69950000     -18.90576000
