6
Properties=species:S:1:pos:R:3 frame=T 54=T |=T Written=T by=T MDAnalysis=T XYZWriter=T (release=T 2.4.3)=T pbc="F F F"
H       -2.00685000      12.17789000       9.04220000
O       -1.56484000      13.03289000       9.05909000
H       -2.03198000      13.46355000       9.75245000
H       -3.54145000      15.25010000       8.60615000
O       -3.49358000      14.53675000       7.94777000
H       -2.70004000      14.07814000       8.20326000
