6
Properties=species:S:1:pos:R:3 frame=T 17=T |=T Written=T by=T MDAnalysis=T XYZWriter=T (release=T 2.4.3)=T pbc="F F F"
H       14.37047000     -10.45428000       5.97380000
O       15.06474000      -9.78264000       5.95578000
H       14.92934000      -9.32882000       5.11165000
H       16.97401000      -9.91674000       6.70507000
O       17.88240000      -9.93940000       6.98526000
H       17.89187000      -9.61462000       7.88466000
