6
Properties=species:S:1:pos:R:3 frame=T 47=T |=T Written=T by=T MDAnalysis=T XYZWriter=T (release=T 2.4.3)=T pbc="F F F"
H       -5.74751000      -2.49912000       2.27653000
O       -5.08756000      -2.90647000       2.85113000
H       -4.21654000      -2.56777000       2.56692000
H       -5.21762000      -5.07317000       2.52605000
O       -5.52500000      -6.01002000       2.50008000
H       -4.75964000      -6.48568000       2.15923000
