6
Properties=species:S:1:pos:R:3 frame=T 44=T |=T Written=T by=T MDAnalysis=T XYZWriter=T (release=T 2.4.3)=T pbc="F F F"
H      -18.14645000     -12.54751000       1.73308000
O      -17.41795000     -12.39493000       2.33145000
H      -17.58929000     -11.48225000       2.53587000
H      -17.27414000     -11.94429000      -1.20061000
O      -17.84031000     -12.70255000      -1.06578000
H      -18.51972000     -12.38329000      -0.47686000
