6
Properties=species:S:1:pos:R:3 frame=T 45=T |=T Written=T by=T MDAnalysis=T XYZWriter=T (release=T 2.4.3)=T pbc="F F F"
H        5.18620000      -0.14945000      11.82701000
O        5.77809000       0.08129000      12.56883000
H        5.48388000      -0.56666000      13.23251000
H        3.81731000      -0.80394000       9.88169000
O        4.30923000       0.02186000       9.93186000
H        4.36931000       0.34843000       9.02161000
