6
Properties=species:S:1:pos:R:3 frame=T 29=T |=T Written=T by=T MDAnalysis=T XYZWriter=T (release=T 2.4.3)=T pbc="F F F"
H       11.70677000     -16.30703000       3.09447000
O       12.60821000     -15.98860000       2.92145000
H       12.46079000     -15.28897000       2.28934000
H       14.38380000     -17.01443000       2.33310000
O       15.29788000     -17.28098000       2.17614000
H       15.34363000     -17.38917000       1.23532000
