6
Properties=species:S:1:pos:R:3 frame=T 2=T |=T Written=T by=T MDAnalysis=T XYZWriter=T (release=T 2.4.3)=T pbc="F F F"
H        8.86383000      -0.43069000      -0.45491000
O        8.62358000      -0.87632000       0.35483000
H        8.03277000      -0.27420000       0.81846000
H        7.83221000      -0.52742000       2.53103000
O        7.05216000      -0.05883000       2.25717000
H        6.50478000      -0.80520000       1.99692000
