6
Properties=species:S:1:pos:R:3 frame=T 25=T |=T Written=T by=T MDAnalysis=T XYZWriter=T (release=T 2.4.3)=T pbc="F F F"
H      -13.74327000      13.39789000      12.41409000
O      -13.36038000      14.18664000      12.04868000
H      -12.63859000      14.39859000      12.67266000
H      -11.96494000      13.63994000      11.20155000
O      -11.05082000      13.47682000      10.94584000
H      -10.64995000      14.36043000      10.98311000
