6
Properties=species:S:1:pos:R:3 frame=T 2=T |=T Written=T by=T MDAnalysis=T XYZWriter=T (release=T 2.4.3)=T pbc="F F F"
H       -3.68038000       1.48648000     -14.96689000
O       -3.65260000       1.57253000     -15.92205000
H       -2.84701000       2.03517000     -16.10004000
H       -1.92806000       1.72585000     -18.53834000
O       -1.53096000       1.48820000     -17.70626000
H       -0.61356000       1.37636000     -17.92393000
