6
Properties=species:S:1:pos:R:3 frame=T 7=T |=T Written=T by=T MDAnalysis=T XYZWriter=T (release=T 2.4.3)=T pbc="F F F"
H      -15.72395000      16.07749000      17.73655000
O      -15.49966000      16.23543000      18.63880000
H      -16.11917000      16.92115000      18.83847000
H      -18.33237000      17.52408000      16.80584000
O      -18.37046000      17.39915000      17.76710000
H      -18.43787000      18.28706000      18.16446000
