6
Properties=species:S:1:pos:R:3 frame=T 22=T |=T Written=T by=T MDAnalysis=T XYZWriter=T (release=T 2.4.3)=T pbc="F F F"
H       -6.73382000     -14.79587000      -9.44058000
O       -7.41351000     -14.54678000      -8.81450000
H       -7.19767000     -14.99150000      -7.96386000
H       -6.92773000     -16.54260000      -8.58768000
O       -6.91502000     -17.45711000      -8.84576000
H       -7.81022000     -17.80195000      -8.74298000
