6
Properties=species:S:1:pos:R:3 frame=T 36=T |=T Written=T by=T MDAnalysis=T XYZWriter=T (release=T 2.4.3)=T pbc="F F F"
H        8.55904000      -4.50230000     -16.51495000
O        9.19982000      -3.80423000     -16.32561000
H        9.90836000      -4.01272000     -16.92770000
H        9.45650000      -6.26548000     -14.51892000
O        9.26411000      -5.34690000     -14.24595000
H        9.40886000      -4.90998000     -15.10678000
