6
Properties=species:S:1:pos:R:3 frame=T 38=T |=T Written=T by=T MDAnalysis=T XYZWriter=T (release=T 2.4.3)=T pbc="F F F"
H      -10.19056000     -15.02283000     -11.48256000
O      -10.15476000     -14.16815000     -11.05769000
H      -10.75551000     -14.37373000     -10.32289000
H       -8.42300000     -16.88454000     -12.97718000
O       -9.16064000     -16.31086000     -12.91454000
H       -8.91153000     -15.62392000     -13.55303000
