6
Properties=species:S:1:pos:R:3 frame=T 47=T |=T Written=T by=T MDAnalysis=T XYZWriter=T (release=T 2.4.3)=T pbc="F F F"
H        3.86957000     -13.02669000       8.00781000
O        4.05357000     -13.48181000       8.85431000
H        3.26094000     -13.25622000       9.33572000
H        5.58240000     -16.69270000       8.81278000
O        4.92172000     -16.17806000       8.36286000
H        5.04998000     -15.33240000       8.79644000
