6
Properties=species:S:1:pos:R:3 frame=T 4=T |=T Written=T by=T MDAnalysis=T XYZWriter=T (release=T 2.4.3)=T pbc="F F F"
H      -14.35461000     -17.52923000      -5.58673000
O      -15.06988000     -17.79498000      -5.02742000
H      -14.95326000     -18.74625000      -5.07486000
H      -12.67076000     -18.14188000      -3.32390000
O      -12.42415000     -18.98576000      -3.72636000
H      -13.19783000     -19.30032000      -4.22000000
