6
Properties=species:S:1:pos:R:3 frame=T 22=T |=T Written=T by=T MDAnalysis=T XYZWriter=T (release=T 2.4.3)=T pbc="F F F"
H       15.02258000      13.73539000       1.99781000
O       14.69149000      13.53044000       1.10100000
H       14.42776000      14.38533000       0.81462000
H       14.37382000      16.05954000      -1.80365000
O       13.86704000      15.34861000      -1.36049000
H       13.56995000      15.78371000      -0.52803000
