6
Properties=species:S:1:pos:R:3 frame=T 46=T |=T Written=T by=T MDAnalysis=T XYZWriter=T (release=T 2.4.3)=T pbc="F F F"
H      -13.02024000     -12.20676000      -9.83713000
O      -13.92610000     -12.37374000     -10.14952000
H      -13.94491000     -13.33156000     -10.25592000
H      -13.07941000     -14.74916000      -8.79366000
O      -12.80307000     -14.67819000      -9.72532000
H      -13.23086000     -15.38950000     -10.20426000
