6
Properties=species:S:1:pos:R:3 frame=T 34=T |=T Written=T by=T MDAnalysis=T XYZWriter=T (release=T 2.4.3)=T pbc="F F F"
H        9.38254000      -6.01801000     -11.26984000
O        8.91246000      -5.21277000     -11.14312000
H        9.06139000      -4.70935000     -11.91672000
H        8.33343000      -4.32897000      -9.37824000
O        7.72201000      -4.25156000      -8.66756000
H        7.80085000      -3.31631000      -8.39131000
