6
Properties=species:S:1:pos:R:3 frame=T 9=T |=T Written=T by=T MDAnalysis=T XYZWriter=T (release=T 2.4.3)=T pbc="F F F"
H       17.03442000       2.22788000      13.18638000
O       17.57022000       2.97626000      12.97072000
H       17.62827000       3.39801000      13.83883000
H       17.26409000      -0.38490000      13.94381000
O       17.93578000       0.31464000      13.96788000
H       18.60938000       0.03236000      14.63814000
