6
Properties=species:S:1:pos:R:3 frame=T 48=T |=T Written=T by=T MDAnalysis=T XYZWriter=T (release=T 2.4.3)=T pbc="F F F"
H       13.68223000     -11.27068000       9.78230000
O       13.69121000     -10.65010000      10.53034000
H       12.82059000     -10.75048000      10.90040000
H        9.96789000     -10.87947000      10.42977000
O       10.71039000     -10.62850000      10.97920000
H       10.29725000      -9.88369000      11.43545000
