6
Properties=species:S:1:pos:R:3 frame=T 6=T |=T Written=T by=T MDAnalysis=T XYZWriter=T (release=T 2.4.3)=T pbc="F F F"
H       17.72006000      16.24835000      -5.79572000
O       18.05856000      17.12536000      -5.67607000
H       18.58200000      17.05240000      -4.85179000
H       17.46014000      14.62737000      -4.96093000
O       17.76374000      14.36460000      -5.86445000
H       18.67982000      14.04867000      -5.81032000
