6
Properties=species:S:1:pos:R:3 frame=T 26=T |=T Written=T by=T MDAnalysis=T XYZWriter=T (release=T 2.4.3)=T pbc="F F F"
H      -11.56098000      13.65243000     -15.66294000
O      -11.42412000      14.13578000     -14.85464000
H      -12.11769000      13.87784000     -14.26679000
H      -13.14937000      14.10213000     -16.65843000
O      -12.78813000      13.36954000     -17.19671000
H      -13.26686000      12.57341000     -16.86508000
