6
Properties=species:S:1:pos:R:3 frame=T 26=T |=T Written=T by=T MDAnalysis=T XYZWriter=T (release=T 2.4.3)=T pbc="F F F"
H       -3.41692000      -6.64840000       7.08533000
O       -2.81701000      -6.11829000       7.61856000
H       -2.73524000      -6.60903000       8.43830000
H       -5.24499000      -8.49053000       5.66205000
O       -4.41901000      -8.16531000       6.00373000
H       -3.79167000      -8.67167000       5.50180000
