6
Properties=species:S:1:pos:R:3 frame=T 20=T |=T Written=T by=T MDAnalysis=T XYZWriter=T (release=T 2.4.3)=T pbc="F F F"
H       -2.22974000      -3.19707000      15.80721000
O       -2.29939000      -2.92741000      16.75181000
H       -2.22279000      -1.97888000      16.66715000
H        0.06405000      -3.62407000      17.45177000
O        0.33947000      -3.83390000      16.52775000
H       -0.53342000      -3.89917000      16.05560000
