6
Properties=species:S:1:pos:R:3 frame=T 27=T |=T Written=T by=T MDAnalysis=T XYZWriter=T (release=T 2.4.3)=T pbc="F F F"
H       -7.69122000     -15.31354000       1.83980000
O       -8.11445000     -15.20965000       0.98444000
H       -8.94797000     -14.75637000       1.22921000
H      -11.13033000     -16.84765000       2.19541000
O      -10.49613000     -16.47934000       1.56380000
H      -10.98308000     -16.39852000       0.74257000
