6
Properties=species:S:1:pos:R:3 frame=T 37=T |=T Written=T by=T MDAnalysis=T XYZWriter=T (release=T 2.4.3)=T pbc="F F F"
H        2.97360000      -1.04996000      -9.85816000
O        2.66951000      -0.24128000      -9.47579000
H        3.27776000      -0.07023000      -8.70869000
H        2.15692000      -2.91146000     -10.25515000
O        1.39263000      -2.84707000      -9.65766000
H        1.46015000      -1.92073000      -9.33615000
