6
Properties=species:S:1:pos:R:3 frame=T 9=T |=T Written=T by=T MDAnalysis=T XYZWriter=T (release=T 2.4.3)=T pbc="F F F"
H       15.74569000      18.92279000      -7.13818000
O       16.48067000      18.36224000      -6.86563000
H       16.27057000      17.42635000      -6.94820000
H       12.87894000      18.86156000      -6.60782000
O       12.61574000      18.53713000      -7.45391000
H       13.02678000      17.63808000      -7.53126000
