6
Properties=species:S:1:pos:R:3 frame=T 0=T |=T Written=T by=T MDAnalysis=T XYZWriter=T (release=T 2.4.3)=T pbc="F F F"
H       18.54997000      18.48233000      -7.79717000
O       19.19146000      18.81039000      -7.14771000
H       18.68620000      19.52744000      -6.70975000
H       15.65607000      17.89683000      -6.52321000
O       15.70549000      18.83610000      -6.61619000
H       15.18043000      19.05283000      -7.38990000
