6
Properties=species:S:1:pos:R:3 frame=T 38=T |=T Written=T by=T MDAnalysis=T XYZWriter=T (release=T 2.4.3)=T pbc="F F F"
H       11.91134000       7.11233000      16.31557000
O       12.67191000       6.87670000      16.86952000
H       13.37882000       6.65158000      16.27278000
H       12.03628000       8.06430000      14.57723000
O       12.89295000       8.27276000      14.17315000
H       13.52365000       7.89676000      14.78999000
