6
Properties=species:S:1:pos:R:3 frame=T 17=T |=T Written=T by=T MDAnalysis=T XYZWriter=T (release=T 2.4.3)=T pbc="F F F"
H      -15.54029000     -14.58261000      19.25196000
O      -15.26811000     -13.72469000      18.86878000
H      -14.58423000     -14.03032000      18.25269000
H      -13.75915000     -13.50944000      16.20734000
O      -13.68480000     -12.62207000      15.87340000
H      -13.26490000     -12.78061000      14.98916000
