6
Properties=species:S:1:pos:R:3 frame=T 52=T |=T Written=T by=T MDAnalysis=T XYZWriter=T (release=T 2.4.3)=T pbc="F F F"
H       14.55089000      18.47611000      -1.00179000
O       15.01295000      17.80955000      -0.47528000
H       15.75631000      17.52262000      -1.04467000
H       18.12000000      19.25614000      -1.73472000
O       18.56750000      18.62488000      -2.35352000
H       17.87135000      17.99749000      -2.58326000
