6
Properties=species:S:1:pos:R:3 frame=T 28=T |=T Written=T by=T MDAnalysis=T XYZWriter=T (release=T 2.4.3)=T pbc="F F F"
H       15.10107000      18.99251000     -13.86858000
O       15.99188000      18.60028000     -13.93468000
H       16.47821000      19.21375000     -13.33728000
H       15.22009000      17.46106000     -12.86794000
O       14.59940000      16.84783000     -12.49344000
H       14.08772000      16.64280000     -13.31148000
