6
Properties=species:S:1:pos:R:3 frame=T 26=T |=T Written=T by=T MDAnalysis=T XYZWriter=T (release=T 2.4.3)=T pbc="F F F"
H      -17.81594000     -10.24623000      18.15666000
O      -18.43621000     -10.84164000      17.72925000
H      -18.56537000     -10.52888000      16.81186000
H      -18.07138000     -13.67057000      18.70135000
O      -18.39552000     -13.91482000      17.83816000
H      -18.83916000     -13.11143000      17.51232000
