6
Properties=species:S:1:pos:R:3 frame=T 54=T |=T Written=T by=T MDAnalysis=T XYZWriter=T (release=T 2.4.3)=T pbc="F F F"
H      -10.04380000      19.63560000       8.74611000
O       -9.92369000      18.67595000       8.86227000
H      -10.46580000      18.36394000       8.15024000
H       -8.42549000      17.96753000       9.97222000
O       -7.51953000      18.04874000      10.31439000
H       -7.42035000      17.34211000      10.98231000
