6
Properties=species:S:1:pos:R:3 frame=T 22=T |=T Written=T by=T MDAnalysis=T XYZWriter=T (release=T 2.4.3)=T pbc="F F F"
H        7.77375000      -0.45459000      16.71070000
O        8.51690000      -0.11324000      16.21018000
H        9.12356000       0.21233000      16.88491000
H        9.70587000      -1.70755000      18.05266000
O        9.42768000      -2.39715000      18.71923000
H        9.93953000      -3.20666000      18.49068000
