6
Properties=species:S:1:pos:R:3 frame=T 53=T |=T Written=T by=T MDAnalysis=T XYZWriter=T (release=T 2.4.3)=T pbc="F F F"
H       17.17878000      -9.13873000     -12.47361000
O       17.12692000      -9.96155000     -12.96230000
H       16.16693000     -10.08994000     -13.06159000
H       16.88403000      -8.94228000     -14.31719000
O       16.79143000      -8.46174000     -15.15688000
H       17.28567000      -9.01246000     -15.75505000
