6
Properties=species:S:1:pos:R:3 frame=T 21=T |=T Written=T by=T MDAnalysis=T XYZWriter=T (release=T 2.4.3)=T pbc="F F F"
H        7.72164000     -10.60786000      16.62096000
O        6.79485000     -10.71386000      16.85633000
H        6.79161000     -11.50231000      17.44302000
H        9.21059000     -10.21072000      18.06443000
O        9.54062000     -10.05385000      17.17741000
H        8.99743000      -9.26163000      16.97159000
