6
Properties=species:S:1:pos:R:3 frame=T 43=T |=T Written=T by=T MDAnalysis=T XYZWriter=T (release=T 2.4.3)=T pbc="F F F"
H       15.05410000       7.72105000       8.01597000
O       15.09278000       8.13448000       8.89879000
H       14.76033000       7.44812000       9.47931000
H       15.14881000       9.83940000       7.48676000
O       15.00389000      10.53132000       6.83202000
H       15.67839000      11.19981000       6.99642000
