6
Properties=species:S:1:pos:R:3 frame=T 52=T |=T Written=T by=T MDAnalysis=T XYZWriter=T (release=T 2.4.3)=T pbc="F F F"
H       -5.71426000       7.22717000     -14.71207000
O       -5.22131000       7.79331000     -15.30643000
H       -5.34900000       7.34371000     -16.16985000
H       -2.81681000       5.67614000     -15.16934000
O       -3.80133000       5.55714000     -15.01183000
H       -4.13118000       6.46538000     -14.98821000
