6
Properties=species:S:1:pos:R:3 frame=T 1=T |=T Written=T by=T MDAnalysis=T XYZWriter=T (release=T 2.4.3)=T pbc="F F F"
H      -10.73546000     -15.35962000      15.68540000
O      -10.30330000     -15.72635000      16.48030000
H      -10.99365000     -15.88811000      17.14673000
H      -10.35287000     -14.21651000      17.52926000
O      -10.67143000     -13.66511000      18.24817000
H      -10.56117000     -14.21914000      19.02720000
