6
Properties=species:S:1:pos:R:3 frame=T 39=T |=T Written=T by=T MDAnalysis=T XYZWriter=T (release=T 2.4.3)=T pbc="F F F"
H       -2.50017000       8.15555000      16.92182000
O       -2.41684000       7.89877000      17.86384000
H       -2.98299000       7.13927000      17.91907000
H       -4.68762000       4.86647000      16.05872000
O       -3.86456000       5.16195000      16.41637000
H       -4.13161000       5.36416000      17.33426000
