6
Properties=species:S:1:pos:R:3 frame=T 8=T |=T Written=T by=T MDAnalysis=T XYZWriter=T (release=T 2.4.3)=T pbc="F F F"
H       17.90646000      13.64386000      -8.10870000
O       18.85431000      13.63623000      -8.11680000
H       19.11732000      13.26041000      -7.25132000
H       16.85853000      12.80548000      -8.97562000
O       16.41433000      13.52912000      -8.51200000
H       15.94142000      13.98609000      -9.21309000
