6
Properties=species:S:1:pos:R:3 frame=T 23=T |=T Written=T by=T MDAnalysis=T XYZWriter=T (release=T 2.4.3)=T pbc="F F F"
H      -13.38840000       6.19869000     -10.47215000
O      -12.54017000       5.90261000     -10.82738000
H      -12.17902000       5.39418000     -10.10806000
H      -13.66173000       4.54473000     -11.12508000
O      -14.08824000       3.76346000     -10.76105000
H      -14.88290000       3.72680000     -11.30071000
