6
Properties=species:S:1:pos:R:3 frame=T 37=T |=T Written=T by=T MDAnalysis=T XYZWriter=T (release=T 2.4.3)=T pbc="F F F"
H      -16.23898000      -2.69170000      11.03541000
O      -16.62305000      -3.45816000      11.46479000
H      -17.52539000      -3.45964000      11.16207000
H      -16.61312000      -3.81660000       8.43411000
O      -16.78594000      -2.88054000       8.30306000
H      -16.10672000      -2.43224000       8.85428000
