6
Properties=species:S:1:pos:R:3 frame=T 52=T |=T Written=T by=T MDAnalysis=T XYZWriter=T (release=T 2.4.3)=T pbc="F F F"
H      -10.48949000       3.11545000       9.77481000
O      -11.05713000       3.01456000       9.02065000
H      -10.48071000       2.48646000       8.43248000
H       -8.48835000       2.72309000       8.82974000
O       -8.31460000       2.09436000       9.55531000
H       -7.92570000       2.61998000      10.25253000
