6
Properties=species:S:1:pos:R:3 frame=T 30=T |=T Written=T by=T MDAnalysis=T XYZWriter=T (release=T 2.4.3)=T pbc="F F F"
H       -2.53638000      -7.25354000      -8.25016000
O       -2.78317000      -7.44508000      -7.33646000
H       -3.40703000      -6.74901000      -7.06315000
H       -6.00828000      -5.97373000      -6.90315000
O       -5.55173000      -6.80291000      -6.70354000
H       -6.20370000      -7.43996000      -7.05616000
