6
Properties=species:S:1:pos:R:3 frame=T 25=T |=T Written=T by=T MDAnalysis=T XYZWriter=T (release=T 2.4.3)=T pbc="F F F"
H       18.15551000      13.63939000      -3.06354000
O       18.50310000      13.18715000      -2.26727000
H       18.55954000      12.26729000      -2.54291000
H       15.58338000      15.43010000      -4.01601000
O       15.60288000      14.76951000      -3.28930000
H       16.37564000      14.18705000      -3.44121000
