6
Properties=species:S:1:pos:R:3 frame=T 36=T |=T Written=T by=T MDAnalysis=T XYZWriter=T (release=T 2.4.3)=T pbc="F F F"
H        1.55586000      -7.29815000       6.39200000
O        2.14976000      -8.03485000       6.26100000
H        2.76726000      -7.71771000       5.57528000
H        1.89058000      -5.37576000       5.87630000
O        1.14101000      -4.97371000       6.29970000
H        0.44846000      -5.39260000       5.76822000
