6
Properties=species:S:1:pos:R:3 frame=T 24=T |=T Written=T by=T MDAnalysis=T XYZWriter=T (release=T 2.4.3)=T pbc="F F F"
H       16.16576000       2.30531000       1.71561000
O       16.99138000       1.88577000       1.95391000
H       17.65770000       2.59521000       1.98536000
H       15.49075000       3.32267000       4.18308000
O       15.68307000       2.37334000       4.25044000
H       16.37564000       2.23329000       3.62138000
