6
Properties=species:S:1:pos:R:3 frame=T 38=T |=T Written=T by=T MDAnalysis=T XYZWriter=T (release=T 2.4.3)=T pbc="F F F"
H      -12.61428000      -3.05226000       8.57641000
O      -13.18877000      -2.33988000       8.25408000
H      -13.25519000      -2.50361000       7.30147000
H      -13.13876000      -4.12973000      10.38055000
O      -12.25193000      -4.05297000      10.76563000
H      -12.09867000      -4.96464000      11.10215000
