6
Properties=species:S:1:pos:R:3 frame=T 46=T |=T Written=T by=T MDAnalysis=T XYZWriter=T (release=T 2.4.3)=T pbc="F F F"
H       -4.60544000      15.30592000      16.22461000
O       -4.24359000      15.21623000      15.34713000
H       -4.89469000      15.67643000      14.81299000
H       -6.67404000      15.72674000      14.20455000
O       -6.44209000      16.42670000      14.84974000
H       -6.40412000      17.21322000      14.28154000
