6
Properties=species:S:1:pos:R:3 frame=T 45=T |=T Written=T by=T MDAnalysis=T XYZWriter=T (release=T 2.4.3)=T pbc="F F F"
H      -15.47195000      16.22102000     -14.13202000
O      -15.05120000      15.40393000     -14.31373000
H      -15.49695000      14.69981000     -13.79361000
H      -15.25948000      11.60092000     -13.22677000
O      -15.32464000      12.52999000     -13.51554000
H      -16.23425000      12.81307000     -13.29754000
