6
Properties=species:S:1:pos:R:3 frame=T 15=T |=T Written=T by=T MDAnalysis=T XYZWriter=T (release=T 2.4.3)=T pbc="F F F"
H       -1.08751000       5.74655000      -5.20786000
O       -0.56980000       5.05529000      -5.66164000
H       -0.34980000       5.42932000      -6.51122000
H       -1.79994000       4.52041000      -6.77925000
O       -2.41035000       4.11282000      -7.40651000
H       -2.65147000       4.86486000      -8.00863000
