6
Properties=species:S:1:pos:R:3 frame=T 47=T |=T Written=T by=T MDAnalysis=T XYZWriter=T (release=T 2.4.3)=T pbc="F F F"
H      -16.06080000      14.59560000     -16.98623000
O      -15.53726000      13.84178000     -17.33180000
H      -15.95089000      13.12033000     -16.84280000
H      -14.51395000      11.46379000     -17.74191000
O      -13.80143000      10.98503000     -17.29161000
H      -13.17388000      11.69384000     -17.22670000
