6
Properties=species:S:1:pos:R:3 frame=T 10=T |=T Written=T by=T MDAnalysis=T XYZWriter=T (release=T 2.4.3)=T pbc="F F F"
H       19.45958000       2.78729000      16.88491000
O       19.03146000       3.50994000      17.37095000
H       18.10326000       3.35522000      17.25476000
H       16.34676000       1.07479000      16.31554000
O       17.23881000       1.14309000      16.64634000
H       17.23916000       0.55998000      17.41348000
