6
Properties=species:S:1:pos:R:3 frame=T 1=T |=T Written=T by=T MDAnalysis=T XYZWriter=T (release=T 2.4.3)=T pbc="F F F"
H      -13.54558000       0.44116000      -8.09437000
O      -14.38391000       0.45843000      -8.55135000
H      -14.43820000       1.38297000      -8.85506000
H      -14.74795000       1.97897000     -11.03179000
O      -15.51047000       2.53277000     -10.81202000
H      -16.21225000       2.13859000     -11.32556000
