6
Properties=species:S:1:pos:R:3 frame=T 41=T |=T Written=T by=T MDAnalysis=T XYZWriter=T (release=T 2.4.3)=T pbc="F F F"
H       -5.62118000     -18.71377000      11.11929000
O       -6.19137000     -18.09881000      11.62275000
H       -6.91681000     -18.68467000      11.90850000
H       -6.68955000     -18.29049000       9.40360000
O       -6.07103000     -18.56791000       8.71738000
H       -5.22030000     -18.32256000       9.02196000
