6
Properties=species:S:1:pos:R:3 frame=T 22=T |=T Written=T by=T MDAnalysis=T XYZWriter=T (release=T 2.4.3)=T pbc="F F F"
H      -17.78907000      -2.03113000      10.24868000
O      -18.64989000      -1.80927000      10.68437000
H      -18.47421000      -1.15562000      11.34574000
H      -17.76580000       0.45995000       9.03656000
O      -18.71823000       0.51740000       8.97296000
H      -18.95063000       0.48818000       9.92671000
