6
Properties=species:S:1:pos:R:3 frame=T 45=T |=T Written=T by=T MDAnalysis=T XYZWriter=T (release=T 2.4.3)=T pbc="F F F"
H        6.60320000     -18.93923000       0.98406000
O        5.89253000     -19.22168000       1.54946000
H        5.25970000     -18.48968000       1.50554000
H        7.91541000     -18.19720000       2.28637000
O        8.06592000     -17.31997000       2.71254000
H        7.21551000     -16.90820000       2.59567000
