6
Properties=species:S:1:pos:R:3 frame=T 33=T |=T Written=T by=T MDAnalysis=T XYZWriter=T (release=T 2.4.3)=T pbc="F F F"
H      -15.82689000      17.14858000      -0.23569000
O      -15.03691000      16.60977000      -0.13953000
H      -15.26195000      15.82147000      -0.62377000
H      -18.14565000      16.81834000      -1.22029000
O      -17.48597000      17.50867000      -1.12316000
H      -16.89165000      17.32492000      -1.85431000
