6
Properties=species:S:1:pos:R:3 frame=T 49=T |=T Written=T by=T MDAnalysis=T XYZWriter=T (release=T 2.4.3)=T pbc="F F F"
H       17.66316000      10.91156000      -3.91421000
O       18.59613000      11.08736000      -3.72319000
H       18.56579000      12.02294000      -3.49145000
H       16.42711000      11.46933000      -5.82939000
O       16.74069000      12.27788000      -6.22557000
H       17.60542000      12.44385000      -5.81482000
