6
Properties=species:S:1:pos:R:3 frame=T 42=T |=T Written=T by=T MDAnalysis=T XYZWriter=T (release=T 2.4.3)=T pbc="F F F"
H       -5.00717000      13.10379000      13.02112000
O       -4.14902000      12.84311000      12.66696000
H       -4.33553000      12.72430000      11.73148000
H       -5.01630000      11.06927000      10.87504000
O       -4.51097000      11.62845000      10.26758000
H       -5.17211000      12.29461000      10.02030000
