6
Properties=species:S:1:pos:R:3 frame=T 26=T |=T Written=T by=T MDAnalysis=T XYZWriter=T (release=T 2.4.3)=T pbc="F F F"
H       11.98724000      -4.84310000       3.78760000
O       12.02560000      -4.72570000       2.86124000
H       12.60093000      -5.42024000       2.57683000
H       15.92458000      -4.16890000       3.75115000
O       15.52397000      -4.72950000       3.05425000
H       14.61045000      -4.83424000       3.36461000
