6
Properties=species:S:1:pos:R:3 frame=T 4=T |=T Written=T by=T MDAnalysis=T XYZWriter=T (release=T 2.4.3)=T pbc="F F F"
H        7.84110000      11.19390000      18.11009000
O        8.27225000      11.75290000      17.44647000
H        9.21106000      11.49304000      17.47333000
H        8.99176000      10.02420000      16.53567000
O        9.53188000       9.26342000      16.30153000
H        9.37918000       8.69406000      17.08725000
