6
Properties=species:S:1:pos:R:3 frame=T 27=T |=T Written=T by=T MDAnalysis=T XYZWriter=T (release=T 2.4.3)=T pbc="F F F"
H      -17.27359000      -7.79512000      -8.59820000
O      -18.07671000      -8.23502000      -8.85788000
H      -18.72156000      -7.60047000      -8.55544000
H      -18.10143000     -10.04831000     -11.62763000
O      -18.84740000     -10.14995000     -11.07015000
H      -18.61093000      -9.70881000     -10.23754000
