6
Properties=species:S:1:pos:R:3 frame=T 1=T |=T Written=T by=T MDAnalysis=T XYZWriter=T (release=T 2.4.3)=T pbc="F F F"
H        0.19592000     -11.80195000      18.04699000
O       -0.13646000     -12.69713000      18.09619000
H       -0.89540000     -12.63200000      18.63639000
H        0.58676000     -10.01888000      18.49784000
O        0.23863000     -10.26614000      19.37318000
H       -0.65010000      -9.91670000      19.28856000
