6
Properties=species:S:1:pos:R:3 frame=T 12=T |=T Written=T by=T MDAnalysis=T XYZWriter=T (release=T 2.4.3)=T pbc="F F F"
H       -9.05598000      10.16811000      -6.75887000
O       -8.60651000       9.70936000      -7.50757000
H       -9.19984000       9.01099000      -7.76885000
H       -7.80209000       8.46793000      -6.72755000
O       -7.34812000       7.72665000      -6.25792000
H       -8.03747000       7.42274000      -5.66719000
