6
Properties=species:S:1:pos:R:3 frame=T 25=T |=T Written=T by=T MDAnalysis=T XYZWriter=T (release=T 2.4.3)=T pbc="F F F"
H       -2.10268000      11.76822000     -15.67933000
O       -2.95102000      11.40979000     -15.96877000
H       -2.70487000      11.01459000     -16.81725000
H       -1.40892000       9.32168000     -14.39142000
O       -1.68643000       8.94986000     -15.24618000
H       -2.21538000       9.65529000     -15.65604000
