6
Properties=species:S:1:pos:R:3 frame=T 16=T |=T Written=T by=T MDAnalysis=T XYZWriter=T (release=T 2.4.3)=T pbc="F F F"
H       -3.61993000     -17.20757000      -5.91358000
O       -3.35475000     -17.70113000      -6.71201000
H       -2.55710000     -17.21230000      -6.96082000
H       -5.02776000     -17.02072000      -8.67133000
O       -5.52297000     -16.25405000      -8.38769000
H       -4.82245000     -15.69731000      -8.06019000
