6
Properties=species:S:1:pos:R:3 frame=T 10=T |=T Written=T by=T MDAnalysis=T XYZWriter=T (release=T 2.4.3)=T pbc="F F F"
H       -4.65676000       0.38138000     -17.71372000
O       -5.05854000       0.05529000     -18.54062000
H       -5.73765000       0.73075000     -18.70068000
H       -7.06897000       0.93668000     -16.95848000
O       -7.79119000       0.50348000     -17.43944000
H       -7.82446000       1.00165000     -18.26165000
