6
Properties=species:S:1:pos:R:3 frame=T 13=T |=T Written=T by=T MDAnalysis=T XYZWriter=T (release=T 2.4.3)=T pbc="F F F"
H       13.03996000      15.30307000       2.93056000
O       12.81298000      14.40187000       2.59480000
H       13.66199000      13.95362000       2.51473000
H       13.41294000      16.79405000       4.20662000
O       14.05044000      16.61312000       3.51025000
H       14.70279000      16.03710000       3.93416000
