6
Properties=species:S:1:pos:R:3 frame=T 54=T |=T Written=T by=T MDAnalysis=T XYZWriter=T (release=T 2.4.3)=T pbc="F F F"
H        3.64553000       2.55152000      -8.14946000
O        3.67307000       3.52987000      -8.34421000
H        2.75834000       3.81188000      -8.10420000
H        1.39770000       4.34220000      -6.99633000
O        0.90975000       4.14510000      -7.83323000
H        0.83500000       3.17411000      -7.76586000
