6
Properties=species:S:1:pos:R:3 frame=T 10=T |=T Written=T by=T MDAnalysis=T XYZWriter=T (release=T 2.4.3)=T pbc="F F F"
H      -19.41339000       2.55919000     -11.13764000
O      -18.48448000       2.74044000     -10.94749000
H      -18.49788000       2.94353000     -10.01807000
H      -18.31859000       4.94708000     -11.38166000
O      -17.78191000       5.31865000     -10.67672000
H      -17.10434000       4.66156000     -10.57019000
