6
Properties=species:S:1:pos:R:3 frame=T 43=T |=T Written=T by=T MDAnalysis=T XYZWriter=T (release=T 2.4.3)=T pbc="F F F"
H       12.39070000      11.44231000      15.46413000
O       12.68476000      10.62109000      15.91331000
H       13.63718000      10.68884000      15.79313000
H       12.73541000      13.36937000      14.32827000
O       12.38692000      12.62197000      13.86608000
H       13.17240000      12.11011000      13.65185000
