6
Properties=species:S:1:pos:R:3 frame=T 4=T |=T Written=T by=T MDAnalysis=T XYZWriter=T (release=T 2.4.3)=T pbc="F F F"
H       -6.39386000      -2.46629000     -16.48853000
O       -6.73911000      -2.34767000     -15.59245000
H       -6.71435000      -1.38492000     -15.50320000
H       -8.81615000      -2.15109000     -17.28857000
O       -9.44737000      -2.30997000     -16.55231000
H       -8.83246000      -2.65705000     -15.89923000
