6
Properties=species:S:1:pos:R:3 frame=T 42=T |=T Written=T by=T MDAnalysis=T XYZWriter=T (release=T 2.4.3)=T pbc="F F F"
H      -17.15518000       6.60206000      -2.21034000
O      -16.67525000       5.82245000      -1.88603000
H      -16.70958000       5.19366000      -2.59138000
H      -17.16711000       8.88533000      -4.92978000
O      -17.89503000       8.21970000      -4.86972000
H      -18.00562000       8.01711000      -3.97031000
