6
Properties=species:S:1:pos:R:3 frame=T 43=T |=T Written=T by=T MDAnalysis=T XYZWriter=T (release=T 2.4.3)=T pbc="F F F"
H      -15.66373000     -18.22957000      18.04644000
O      -15.89507000     -19.00168000      17.50249000
H      -16.78555000     -18.75434000      17.19104000
H      -17.25555000     -17.02768000      18.35749000
O      -18.15327000     -17.40209000      18.19467000
H      -18.20333000     -18.08503000      18.84891000
