6
Properties=species:S:1:pos:R:3 frame=T 3=T |=T Written=T by=T MDAnalysis=T XYZWriter=T (release=T 2.4.3)=T pbc="F F F"
H      -13.91287000       6.04698000     -18.42837000
O      -13.49434000       6.87972000     -18.09184000
H      -14.20254000       7.19765000     -17.48008000
H      -12.10555000       8.26187000     -16.38551000
O      -11.72727000       8.80669000     -15.69070000
H      -10.79729000       8.97062000     -15.92214000
