6
Properties=species:S:1:pos:R:3 frame=T 1=T |=T Written=T by=T MDAnalysis=T XYZWriter=T (release=T 2.4.3)=T pbc="F F F"
H       -1.01585000      -7.13915000      17.51493000
O       -0.63937000      -6.80499000      16.67685000
H       -0.86164000      -7.51641000      16.04532000
H       -2.61261000      -4.71564000      18.14025000
O       -3.40476000      -5.23748000      18.46004000
H       -3.01857000      -5.77030000      19.17228000
