6
Properties=species:S:1:pos:R:3 frame=T 13=T |=T Written=T by=T MDAnalysis=T XYZWriter=T (release=T 2.4.3)=T pbc="F F F"
H       10.80580000       6.04336000      -6.32723000
O       10.27043000       6.67305000      -5.86903000
H        9.71472000       6.19869000      -5.25003000
H       10.44561000       5.23285000      -8.78108000
O       10.11204000       4.33744000      -8.63148000
H       10.48695000       3.80433000      -9.39547000
