6
Properties=species:S:1:pos:R:3 frame=T 47=T |=T Written=T by=T MDAnalysis=T XYZWriter=T (release=T 2.4.3)=T pbc="F F F"
H       17.24882000       5.68634000       7.74330000
O       16.74541000       4.87143000       7.93799000
H       16.43601000       4.64838000       7.03774000
H       16.74251000       3.29743000       6.14885000
O       15.94830000       3.44625000       5.61714000
H       15.24259000       3.18799000       6.25778000
