6
Properties=species:S:1:pos:R:3 frame=T 50=T |=T Written=T by=T MDAnalysis=T XYZWriter=T (release=T 2.4.3)=T pbc="F F F"
H       16.57643000     -16.73068000      -6.25160000
O       17.13846000     -16.62264000      -7.04362000
H       17.97297000     -16.95022000      -6.64488000
H       14.71386000     -17.98333000      -6.90264000
O       15.23691000     -18.76824000      -6.71253000
H       16.16101000     -18.50639000      -6.81847000
