6
Properties=species:S:1:pos:R:3 frame=T 0=T |=T Written=T by=T MDAnalysis=T XYZWriter=T (release=T 2.4.3)=T pbc="F F F"
H        9.07124000      15.68600000     -13.34832000
O        9.31477000      16.26249000     -12.57222000
H        9.61874000      15.59813000     -11.96736000
H        7.51176000      17.55672000     -15.14229000
O        8.01102000      16.93321000     -15.70376000
H        8.22144000      16.17481000     -15.15059000
