6
Properties=species:S:1:pos:R:3 frame=T 20=T |=T Written=T by=T MDAnalysis=T XYZWriter=T (release=T 2.4.3)=T pbc="F F F"
H       18.13650000       9.92735000      14.74147000
O       18.01008000      10.35515000      15.61127000
H       17.07655000      10.23526000      15.78573000
H       15.48309000      11.07243000      13.63698000
O       15.90118000      11.93972000      13.67139000
H       16.83893000      11.70836000      13.72683000
