6
Properties=species:S:1:pos:R:3 frame=T 23=T |=T Written=T by=T MDAnalysis=T XYZWriter=T (release=T 2.4.3)=T pbc="F F F"
H        4.60210000     -10.43074000       7.71785000
O        4.99550000     -10.45445000       6.82589000
H        4.32293000     -10.00248000       6.30312000
H        7.36524000     -12.60278000       8.24432000
O        7.64095000     -11.84789000       7.71309000
H        6.77490000     -11.40125000       7.53715000
