6
Properties=species:S:1:pos:R:3 frame=T 29=T |=T Written=T by=T MDAnalysis=T XYZWriter=T (release=T 2.4.3)=T pbc="F F F"
H       -9.99861000     -11.13880000       9.92264000
O      -10.33942000     -11.85487000      10.43522000
H      -10.23303000     -12.62958000       9.88292000
H      -10.46282000      -8.50218000       9.56119000
O       -9.78004000      -9.16945000       9.67794000
H       -8.99220000      -8.61234000       9.76021000
