6
Properties=species:S:1:pos:R:3 frame=T 28=T |=T Written=T by=T MDAnalysis=T XYZWriter=T (release=T 2.4.3)=T pbc="F F F"
H       15.65023000       5.12880000      15.42867000
O       15.09685000       5.31468000      14.64283000
H       15.76095000       5.36908000      13.92388000
H       18.34570000       5.15539000      13.10003000
O       17.84098000       4.49753000      13.62828000
H       18.13254000       3.63128000      13.23734000
