6
Properties=species:S:1:pos:R:3 frame=T 52=T |=T Written=T by=T MDAnalysis=T XYZWriter=T (release=T 2.4.3)=T pbc="F F F"
H       10.88884000       4.31092000     -17.42893000
O       10.52633000       4.89162000     -18.11019000
H        9.57971000       4.81604000     -17.92636000
H        9.23313000       2.24083000     -16.35365000
O        9.90042000       2.11392000     -17.06521000
H        9.70978000       1.19716000     -17.28835000
