6
Properties=species:S:1:pos:R:3 frame=T 43=T |=T Written=T by=T MDAnalysis=T XYZWriter=T (release=T 2.4.3)=T pbc="F F F"
H      -12.51162000     -11.29096000      11.98776000
O      -12.40316000     -10.34683000      12.06837000
H      -13.21385000      -9.99335000      11.68361000
H      -14.30990000      -9.24459000      13.69851000
O      -13.52035000      -9.13592000      14.25498000
H      -12.81595000      -9.71957000      13.87939000
