6
Properties=species:S:1:pos:R:3 frame=T 39=T |=T Written=T by=T MDAnalysis=T XYZWriter=T (release=T 2.4.3)=T pbc="F F F"
H        5.59115000      15.14323000     -18.20536000
O        6.08852000      15.73520000     -17.63478000
H        6.80890000      15.19531000     -17.29830000
H        5.98650000      17.85620000     -18.04127000
O        5.74198000      18.28193000     -18.86195000
H        4.95732000      18.79838000     -18.69698000
