6
Properties=species:S:1:pos:R:3 frame=T 16=T |=T Written=T by=T MDAnalysis=T XYZWriter=T (release=T 2.4.3)=T pbc="F F F"
H       15.47616000     -10.63809000      -6.34686000
O       16.29921000     -10.22196000      -6.60290000
H       16.58753000     -10.75191000      -7.36878000
H       16.64658000     -11.94555000      -9.03582000
O       16.23195000     -12.38955000      -8.30524000
H       15.28321000     -12.21727000      -8.47605000
