6
Properties=species:S:1:pos:R:3 frame=T 52=T |=T Written=T by=T MDAnalysis=T XYZWriter=T (release=T 2.4.3)=T pbc="F F F"
H       11.23079000      11.87039000     -17.53363000
O       12.15725000      12.12489000     -17.61026000
H       12.61241000      11.26326000     -17.65547000
H       13.07603000       8.85195000     -16.89633000
O       13.17663000       9.05772000     -17.83632000
H       12.52930000       8.49533000     -18.29399000
