6
Properties=species:S:1:pos:R:3 frame=T 39=T |=T Written=T by=T MDAnalysis=T XYZWriter=T (release=T 2.4.3)=T pbc="F F F"
H        1.01197000      17.75912000      -7.29962000
O        0.67195000      16.99421000      -7.77006000
H        1.44118000      16.51365000      -8.04313000
H        0.31973000      17.57720000      -9.39222000
O        0.44341000      18.30362000     -10.03468000
H        1.34329000      18.24563000     -10.34482000
