6
Properties=species:S:1:pos:R:3 frame=T 10=T |=T Written=T by=T MDAnalysis=T XYZWriter=T (release=T 2.4.3)=T pbc="F F F"
H       12.37794000      14.91500000       4.11879000
O       12.74852000      14.03823000       4.19856000
H       13.33392000      14.03637000       3.42806000
H       11.03572000      13.54496000       3.46712000
O       10.18936000      13.89302000       3.12148000
H       10.00658000      14.64051000       3.68753000
