6
Properties=species:S:1:pos:R:3 frame=T 30=T |=T Written=T by=T MDAnalysis=T XYZWriter=T (release=T 2.4.3)=T pbc="F F F"
H       -5.95005000       6.06353000      15.60379000
O       -6.15359000       6.82307000      16.15973000
H       -6.98904000       6.55657000      16.54232000
H       -4.73064000       9.91789000      15.48972000
O       -5.54459000       9.57833000      15.11346000
H       -5.61406000       8.64473000      15.41801000
