6
Properties=species:S:1:pos:R:3 frame=T 2=T |=T Written=T by=T MDAnalysis=T XYZWriter=T (release=T 2.4.3)=T pbc="F F F"
H      -14.26498000     -14.94820000      10.91126000
O      -14.11976000     -14.24346000      11.56115000
H      -13.24377000     -13.93223000      11.31829000
H      -11.79534000     -14.92250000       9.59806000
O      -11.52024000     -15.67918000      10.11256000
H      -11.17929000     -15.31248000      10.94018000
