6
Properties=species:S:1:pos:R:3 frame=T 43=T |=T Written=T by=T MDAnalysis=T XYZWriter=T (release=T 2.4.3)=T pbc="F F F"
H        6.74987000       5.94029000       1.85213000
O        6.39528000       6.47934000       2.55315000
H        7.09491000       6.97870000       2.99049000
H        6.05639000       4.13332000      -0.46161000
O        6.40246000       4.67282000       0.26815000
H        6.89432000       3.96935000       0.72925000
