6
Properties=species:S:1:pos:R:3 frame=T 31=T |=T Written=T by=T MDAnalysis=T XYZWriter=T (release=T 2.4.3)=T pbc="F F F"
H       17.75559000      -6.62383000      11.64980000
O       17.93096000      -6.75962000      10.69477000
H       18.83700000      -6.41266000      10.54623000
H       19.37949000      -4.12252000       8.17000000
O       18.47132000      -4.35888000       8.42372000
H       18.57192000      -4.92431000       9.20535000
