6
Properties=species:S:1:pos:R:3 frame=T 37=T |=T Written=T by=T MDAnalysis=T XYZWriter=T (release=T 2.4.3)=T pbc="F F F"
H       16.32081000      15.90197000     -14.15003000
O       15.57096000      15.52317000     -13.72503000
H       15.95874000      15.21871000     -12.90587000
H       14.11752000      16.14259000     -15.13577000
O       13.33144000      16.23161000     -15.68434000
H       13.48999000      15.66144000     -16.45006000
