6
Properties=species:S:1:pos:R:3 frame=T 23=T |=T Written=T by=T MDAnalysis=T XYZWriter=T (release=T 2.4.3)=T pbc="F F F"
H       -5.76170000       8.55434000     -15.69239000
O       -5.21080000       7.90076000     -16.19448000
H       -4.54903000       7.59489000     -15.54600000
H       -6.38156000       7.16263000     -13.05085000
O       -6.85037000       7.00492000     -13.88595000
H       -6.21686000       7.34476000     -14.53079000
