6
Properties=species:S:1:pos:R:3 frame=T 39=T |=T Written=T by=T MDAnalysis=T XYZWriter=T (release=T 2.4.3)=T pbc="F F F"
H        5.74674000     -16.89748000      13.76131000
O        5.33933000     -17.77802000      13.84168000
H        6.10466000     -18.37021000      13.77169000
H        3.33143000     -16.00665000      11.28511000
O        3.35715000     -16.99310000      11.42662000
H        4.07971000     -17.04656000      12.07193000
