6
Properties=species:S:1:pos:R:3 frame=T 42=T |=T Written=T by=T MDAnalysis=T XYZWriter=T (release=T 2.4.3)=T pbc="F F F"
H       -5.11401000     -12.75260000      -3.29946000
O       -4.95073000     -13.49962000      -2.75523000
H       -4.45218000     -14.08595000      -3.32381000
H       -6.24915000     -14.46978000      -1.43401000
O       -6.55585000     -15.13204000      -0.80571000
H       -7.44801000     -15.32629000      -1.15841000
