6
Properties=species:S:1:pos:R:3 frame=T 6=T |=T Written=T by=T MDAnalysis=T XYZWriter=T (release=T 2.4.3)=T pbc="F F F"
H       16.85993000      15.87411000       7.07106000
O       16.29649000      15.50162000       6.34838000
H       16.22577000      16.29220000       5.82037000
H       16.03054000      13.55752000       6.03909000
O       16.43587000      12.77503000       5.63821000
H       15.82988000      12.07905000       5.87596000
