6
Properties=species:S:1:pos:R:3 frame=T 1=T |=T Written=T by=T MDAnalysis=T XYZWriter=T (release=T 2.4.3)=T pbc="F F F"
H       15.03911000      10.80168000     -16.11575000
O       14.28688000      10.32172000     -15.72806000
H       14.09879000       9.65447000     -16.39971000
H       15.06830000      12.79822000     -18.08632000
O       15.48862000      11.95844000     -17.86177000
H       16.14086000      11.94081000     -18.57957000
