6
Properties=species:S:1:pos:R:3 frame=T 10=T |=T Written=T by=T MDAnalysis=T XYZWriter=T (release=T 2.4.3)=T pbc="F F F"
H      -15.62210000     -11.14949000      -7.28572000
O      -16.38285000     -11.02313000      -6.71725000
H      -16.01265000     -10.75994000      -5.86507000
H      -13.74021000      -9.93737000      -7.52669000
O      -13.77785000     -10.89213000      -7.59965000
H      -13.36391000     -11.17401000      -6.78680000
