6
Properties=species:S:1:pos:R:3 frame=T 54=T |=T Written=T by=T MDAnalysis=T XYZWriter=T (release=T 2.4.3)=T pbc="F F F"
H       18.06602000     -16.58689000       3.77900000
O       18.54099000     -17.43671000       3.62220000
H       19.30598000     -17.36056000       4.19981000
H       16.84394000     -18.18595000       5.07364000
O       16.40549000     -18.79124000       5.72916000
H       15.64518000     -18.37792000       6.08427000
