6
Properties=species:S:1:pos:R:3 frame=T 40=T |=T Written=T by=T MDAnalysis=T XYZWriter=T (release=T 2.4.3)=T pbc="F F F"
H        9.79895000      14.14977000       9.38721000
O        9.42820000      13.58500000      10.09528000
H        9.82659000      14.04317000      10.83503000
H        7.34317000      14.72125000       9.18760000
O        6.86965000      13.92120000       9.45366000
H        7.58134000      13.43811000       9.93792000
