6
Properties=species:S:1:pos:R:3 frame=T 16=T |=T Written=T by=T MDAnalysis=T XYZWriter=T (release=T 2.4.3)=T pbc="F F F"
H       -3.37569000       5.21448000     -13.27621000
O       -2.63310000       4.87152000     -13.73979000
H       -2.69844000       3.93159000     -13.51719000
H       -3.38820000       4.24600000     -15.26491000
O       -3.28995000       3.69154000     -16.04582000
H       -2.43094000       3.30680000     -15.99665000
