6
Properties=species:S:1:pos:R:3 frame=T 18=T |=T Written=T by=T MDAnalysis=T XYZWriter=T (release=T 2.4.3)=T pbc="F F F"
H      -11.06561000      -1.14376000      -5.68153000
O      -11.41910000      -0.27142000      -5.94412000
H      -11.61260000      -0.42789000      -6.86028000
H       -9.86584000       0.69275000      -8.21778000
O       -9.40160000      -0.15240000      -8.29628000
H       -9.98784000      -0.74292000      -7.79454000
