6
Properties=species:S:1:pos:R:3 frame=T 1=T |=T Written=T by=T MDAnalysis=T XYZWriter=T (release=T 2.4.3)=T pbc="F F F"
H        4.01821000       3.14612000      14.27057000
O        3.24124000       2.81865000      13.79452000
H        2.73931000       3.64417000      13.73463000
H        0.12893000       4.30398000      11.97738000
O        0.85552000       4.47917000      12.58292000
H        0.74753000       5.39798000      12.82519000
