6
Properties=species:S:1:pos:R:3 frame=T 25=T |=T Written=T by=T MDAnalysis=T XYZWriter=T (release=T 2.4.3)=T pbc="F F F"
H       17.98129000      -1.19620000     -12.25416000
O       17.78544000      -2.11127000     -11.92443000
H       17.36653000      -1.88070000     -11.09047000
H       16.01979000       0.24821000     -14.16684000
O       16.31409000       1.04018000     -13.69253000
H       17.22281000       0.81827000     -13.43625000
