6
Properties=species:S:1:pos:R:3 frame=T 53=T |=T Written=T by=T MDAnalysis=T XYZWriter=T (release=T 2.4.3)=T pbc="F F F"
H       16.04261000       7.65580000      -7.93171000
O       15.48069000       8.17252000      -8.53663000
H       16.05988000       8.54633000      -9.19277000
H       18.52282000       9.56723000     -10.50674000
O       18.26444000       8.65114000     -10.31861000
H       19.04241000       8.14581000     -10.63083000
