6
Properties=species:S:1:pos:R:3 frame=T 6=T |=T Written=T by=T MDAnalysis=T XYZWriter=T (release=T 2.4.3)=T pbc="F F F"
H      -18.72776000       1.85028000      14.47383000
O      -18.38795000       1.11255000      14.98814000
H      -19.00763000       0.37966000      14.79877000
H      -17.06067000      -1.52933000      14.03576000
O      -16.89158000      -1.31939000      13.08726000
H      -16.08470000      -0.79199000      13.11753000
