6
Properties=species:S:1:pos:R:3 frame=T 0=T |=T Written=T by=T MDAnalysis=T XYZWriter=T (release=T 2.4.3)=T pbc="F F F"
H      -14.33282000     -18.00926000      11.90538000
O      -14.36012000     -17.84566000      10.95700000
H      -13.85597000     -18.56662000      10.59555000
H      -18.10043000     -16.57854000      11.22088000
O      -17.13102000     -16.56762000      11.17821000
H      -16.90743000     -17.21131000      10.49705000
