6
Properties=species:S:1:pos:R:3 frame=T 48=T |=T Written=T by=T MDAnalysis=T XYZWriter=T (release=T 2.4.3)=T pbc="F F F"
H        3.03157000       4.19891000       9.83958000
O        2.45095000       4.93949000       9.62161000
H        2.12607000       5.17741000      10.51820000
H        4.18275000       2.21037000      10.71910000
O        3.77947000       2.83933000      10.12860000
H        2.80473000       2.68198000      10.21716000
