6
Properties=species:S:1:pos:R:3 frame=T 45=T |=T Written=T by=T MDAnalysis=T XYZWriter=T (release=T 2.4.3)=T pbc="F F F"
H       11.36494000      -1.24191000     -12.58955000
O       10.54472000      -1.48331000     -13.09692000
H       10.93039000      -1.91782000     -13.84969000
H       12.10549000      -3.88984000     -13.35622000
O       12.82575000      -4.09815000     -13.96284000
H       12.52074000      -3.72503000     -14.78559000
