6
Properties=species:S:1:pos:R:3 frame=T 31=T |=T Written=T by=T MDAnalysis=T XYZWriter=T (release=T 2.4.3)=T pbc="F F F"
H       13.25280000      -5.47234000      10.63174000
O       12.34276000      -5.21596000      10.50802000
H       12.31415000      -4.25298000      10.53837000
H       13.55137000      -4.90719000       8.43128000
O       14.15633000      -4.22869000       8.11262000
H       13.68225000      -3.40432000       8.33160000
