6
Properties=species:S:1:pos:R:3 frame=T 10=T |=T Written=T by=T MDAnalysis=T XYZWriter=T (release=T 2.4.3)=T pbc="F F F"
H      -14.34538000     -13.90702000      -9.21770000
O      -14.71056000     -13.05320000      -9.43486000
H      -14.29259000     -12.39462000      -8.81541000
H      -15.50441000     -14.85230000      -7.48389000
O      -14.98206000     -15.46239000      -6.91844000
H      -14.13850000     -14.99503000      -6.95268000
