6
Properties=species:S:1:pos:R:3 frame=T 38=T |=T Written=T by=T MDAnalysis=T XYZWriter=T (release=T 2.4.3)=T pbc="F F F"
H       -8.08612000      -4.55858000       7.64262000
O       -7.33745000      -4.82906000       7.10047000
H       -6.75805000      -4.04675000       7.12509000
H       -8.71055000      -4.84019000       9.13002000
O       -8.21051000      -4.97782000       9.93218000
H       -7.54960000      -5.64192000       9.68316000
