6
Properties=species:S:1:pos:R:3 frame=T 16=T |=T Written=T by=T MDAnalysis=T XYZWriter=T (release=T 2.4.3)=T pbc="F F F"
H       15.94277000     -18.05136000       0.61759000
O       16.84302000     -18.11175000       0.33714000
H       17.26112000     -17.29628000       0.64547000
H       14.42505000     -16.44240000       1.74607000
O       15.18092000     -16.42464000       2.32569000
H       15.39340000     -17.33211000       2.51998000
