6
Properties=species:S:1:pos:R:3 frame=T 45=T |=T Written=T by=T MDAnalysis=T XYZWriter=T (release=T 2.4.3)=T pbc="F F F"
H       15.74475000     -18.60766000      -1.65318000
O       15.11492000     -18.89624000      -2.32625000
H       15.05456000     -18.05449000      -2.79564000
H       16.94818000     -17.18632000      -0.69492000
O       17.73356000     -17.04141000      -1.26085000
H       17.35405000     -16.56917000      -2.00578000
