6
Properties=species:S:1:pos:R:3 frame=T 8=T |=T Written=T by=T MDAnalysis=T XYZWriter=T (release=T 2.4.3)=T pbc="F F F"
H        1.21175000      -4.43743000      -4.35343000
O        0.26017000      -4.54219000      -4.48493000
H       -0.03351000      -4.96878000      -3.68885000
H        2.20015000      -2.86620000      -3.36062000
O        2.49957000      -3.77506000      -3.10906000
H        2.96631000      -4.04748000      -3.92249000
