6
Properties=species:S:1:pos:R:3 frame=T 29=T |=T Written=T by=T MDAnalysis=T XYZWriter=T (release=T 2.4.3)=T pbc="F F F"
H       -8.11396000      11.03219000      13.93264000
O       -8.91374000      10.81889000      14.42166000
H       -8.69249000       9.93669000      14.80609000
H      -11.82205000      12.54365000      13.98794000
O      -11.57572000      11.90168000      14.63451000
H      -10.84632000      11.44003000      14.23601000
