6
Properties=species:S:1:pos:R:3 frame=T 41=T |=T Written=T by=T MDAnalysis=T XYZWriter=T (release=T 2.4.3)=T pbc="F F F"
H      -18.41514000      18.63282000     -12.86545000
O      -18.96362000      17.86606000     -13.05164000
H      -18.56059000      17.19645000     -12.50511000
H      -19.14258000      16.30315000     -10.45364000
O      -19.03186000      16.95579000      -9.74677000
H      -18.04251000      16.97579000      -9.71754000
