6
Properties=species:S:1:pos:R:3 frame=T 46=T |=T Written=T by=T MDAnalysis=T XYZWriter=T (release=T 2.4.3)=T pbc="F F F"
H      -11.80026000      -0.32316000     -10.75377000
O      -11.69095000       0.52826000     -10.27941000
H      -12.11982000       0.34413000      -9.42802000
H      -11.13649000      -2.34631000     -10.61381000
O      -11.70713000      -1.91317000     -11.26298000
H      -12.61215000      -2.13453000     -10.93595000
