6
Properties=species:S:1:pos:R:3 frame=T 20=T |=T Written=T by=T MDAnalysis=T XYZWriter=T (release=T 2.4.3)=T pbc="F F F"
H      -18.24698000      11.47149000      14.72941000
O      -17.31588000      11.70910000      14.58207000
H      -16.79410000      11.05448000      15.05959000
H      -16.71285000      12.92456000      17.01851000
O      -17.26554000      13.62957000      16.62502000
H      -17.67569000      13.24141000      15.82952000
