6
Properties=species:S:1:pos:R:3 frame=T 48=T |=T Written=T by=T MDAnalysis=T XYZWriter=T (release=T 2.4.3)=T pbc="F F F"
H        3.70056000       2.71493000       4.97608000
O        3.84499000       3.64635000       5.17310000
H        4.49750000       3.94679000       4.50826000
H        4.54850000       3.27926000       6.95329000
O        5.35482000       3.03406000       7.39581000
H        6.03637000       3.13928000       6.69765000
