6
Properties=species:S:1:pos:R:3 frame=T 23=T |=T Written=T by=T MDAnalysis=T XYZWriter=T (release=T 2.4.3)=T pbc="F F F"
H       14.72173000      -3.11404000     -15.82936000
O       15.69812000      -3.07838000     -15.73271000
H       15.81747000      -2.45982000     -14.97890000
H       15.38747000      -0.07325000     -16.67039000
O       15.34099000      -0.83878000     -17.26627000
H       15.53590000      -1.64494000     -16.72375000
