6
Properties=species:S:1:pos:R:3 frame=T 40=T |=T Written=T by=T MDAnalysis=T XYZWriter=T (release=T 2.4.3)=T pbc="F F F"
H       -4.68449000       1.52808000      11.46480000
O       -4.84943000       1.01830000      10.68025000
H       -3.95108000       0.99717000      10.32633000
H       -3.67011000      -0.36065000      11.28472000
O       -3.29409000      -1.10676000      10.81824000
H       -2.47158000      -1.22079000      11.31230000
