6
Properties=species:S:1:pos:R:3 frame=T 23=T |=T Written=T by=T MDAnalysis=T XYZWriter=T (release=T 2.4.3)=T pbc="F F F"
H      -10.03825000      15.21364000      17.26338000
O      -10.13968000      15.77370000      16.48229000
H      -10.99608000      15.51403000      16.12250000
H       -9.89437000      17.43829000      16.88449000
O      -10.08334000      18.11347000      17.58511000
H      -10.28953000      17.56961000      18.36982000
