6
Properties=species:S:1:pos:R:3 frame=T 19=T |=T Written=T by=T MDAnalysis=T XYZWriter=T (release=T 2.4.3)=T pbc="F F F"
H       13.21165000      -9.90177000       6.90930000
O       14.14362000      -9.60522000       6.91722000
H       14.30583000      -9.13900000       6.08181000
H       12.58856000      -9.23251000       4.93548000
O       11.68079000      -9.19779000       5.34435000
H       11.41058000      -8.27461000       5.27977000
