6
Properties=species:S:1:pos:R:3 frame=T 42=T |=T Written=T by=T MDAnalysis=T XYZWriter=T (release=T 2.4.3)=T pbc="F F F"
H       17.85746000     -13.80164000     -10.52352000
O       18.31371000     -13.68591000     -11.36717000
H       17.62996000     -13.59494000     -12.02615000
H       17.23611000     -16.62954000     -12.46800000
O       16.50443000     -16.06159000     -12.70393000
H       16.86465000     -15.43236000     -13.29656000
