6
Properties=species:S:1:pos:R:3 frame=T 10=T |=T Written=T by=T MDAnalysis=T XYZWriter=T (release=T 2.4.3)=T pbc="F F F"
H        7.55184000     -12.78071000      -6.49168000
O        6.67333000     -12.79445000      -6.89393000
H        6.13470000     -12.81187000      -6.10797000
H        6.80695000     -15.57208000      -5.39422000
O        6.15825000     -15.46843000      -6.10718000
H        6.30222000     -14.57315000      -6.44941000
