6
Properties=species:S:1:pos:R:3 frame=T 8=T |=T Written=T by=T MDAnalysis=T XYZWriter=T (release=T 2.4.3)=T pbc="F F F"
H        0.25764000       9.76608000     -13.63662000
O        0.52168000       9.05558000     -13.05979000
H        0.89822000       9.52038000     -12.28925000
H        2.48880000       6.15172000     -12.70480000
O        2.38981000       6.72429000     -13.46654000
H        1.64529000       7.25561000     -13.25825000
