6
Properties=species:S:1:pos:R:3 frame=T 10=T |=T Written=T by=T MDAnalysis=T XYZWriter=T (release=T 2.4.3)=T pbc="F F F"
H       13.60197000     -17.48927000      -1.38468000
O       14.12954000     -16.88103000      -1.90301000
H       14.36242000     -17.44534000      -2.64516000
H       10.87334000     -18.72679000      -3.74662000
O       11.45963000     -17.95835000      -3.87413000
H       12.13416000     -18.13177000      -3.20778000
