6
Properties=species:S:1:pos:R:3 frame=T 34=T |=T Written=T by=T MDAnalysis=T XYZWriter=T (release=T 2.4.3)=T pbc="F F F"
H       13.17266000      10.22278000       5.59918000
O       12.61568000      10.99875000       5.68658000
H       11.83230000      10.72262000       5.17347000
H       15.42976000       9.11089000       5.36051000
O       14.90603000       9.37008000       6.13510000
H       15.38577000       8.93465000       6.82405000
