6
Properties=species:S:1:pos:R:3 frame=T 37=T |=T Written=T by=T MDAnalysis=T XYZWriter=T (release=T 2.4.3)=T pbc="F F F"
H      -12.92833000      12.48127000       7.48604000
O      -13.01023000      12.65838000       8.42541000
H      -12.80361000      11.81144000       8.84433000
H      -12.73819000      11.56825000       5.27179000
O      -12.38331000      12.21672000       5.88826000
H      -11.88454000      11.68697000       6.52112000
