6
Properties=species:S:1:pos:R:3 frame=T 5=T |=T Written=T by=T MDAnalysis=T XYZWriter=T (release=T 2.4.3)=T pbc="F F F"
H        4.59179000      -6.00659000     -13.19738000
O        5.44637000      -6.00349000     -13.64085000
H        5.38959000      -5.32307000     -14.30437000
H        3.48536000      -6.49156000     -14.57607000
O        2.55237000      -6.46519000     -14.71730000
H        2.13926000      -6.14763000     -13.88436000
