6
Properties=species:S:1:pos:R:3 frame=T 43=T |=T Written=T by=T MDAnalysis=T XYZWriter=T (release=T 2.4.3)=T pbc="F F F"
H       -8.94805000     -17.78786000      17.92021000
O       -8.89802000     -18.68918000      17.59789000
H       -8.96318000     -19.25033000      18.41237000
H       -8.53267000     -17.42965000      15.69445000
O       -8.55197000     -16.47068000      15.64055000
H       -7.97147000     -16.30227000      14.90229000
