6
Properties=species:S:1:pos:R:3 frame=T 2=T |=T Written=T by=T MDAnalysis=T XYZWriter=T (release=T 2.4.3)=T pbc="F F F"
H       -4.33949000       4.41492000      18.31351000
O       -3.58583000       4.98192000      18.53670000
H       -3.60829000       5.03807000      19.51162000
H       -3.07147000       3.05359000      18.33462000
O       -3.19026000       2.10965000      18.18437000
H       -3.93826000       1.89788000      18.77777000
