6
Properties=species:S:1:pos:R:3 frame=T 1=T |=T Written=T by=T MDAnalysis=T XYZWriter=T (release=T 2.4.3)=T pbc="F F F"
H      -15.49204000      -2.53281000       5.53392000
O      -15.68756000      -1.99624000       4.78141000
H      -15.14653000      -1.19496000       4.88665000
H      -15.66028000      -5.31776000       6.63066000
O      -15.70407000      -4.40281000       6.41738000
H      -16.00381000      -4.01731000       7.23558000
