6
Properties=species:S:1:pos:R:3 frame=T 18=T |=T Written=T by=T MDAnalysis=T XYZWriter=T (release=T 2.4.3)=T pbc="F F F"
H       -8.89089000       2.95825000       7.44056000
O       -8.12498000       2.74654000       6.87242000
H       -8.45233000       2.92547000       5.96846000
H       -8.44619000       1.18800000       7.47588000
O       -8.54209000       0.42612000       8.06471000
H       -8.82847000       0.89083000       8.87245000
