6
Properties=species:S:1:pos:R:3 frame=T 9=T |=T Written=T by=T MDAnalysis=T XYZWriter=T (release=T 2.4.3)=T pbc="F F F"
H       14.83302000      17.82987000       8.20263000
O       15.30782000      18.62672000       7.87923000
H       15.70986000      19.01852000       8.68422000
H       16.75919000      17.67673000       8.39319000
O       17.60784000      17.23385000       8.23090000
H       17.84691000      16.94168000       9.12611000
