6
Properties=species:S:1:pos:R:3 frame=T 51=T |=T Written=T by=T MDAnalysis=T XYZWriter=T (release=T 2.4.3)=T pbc="F F F"
H       10.11469000      -6.64013000     -18.40299000
O       10.58685000      -5.83353000     -18.72993000
H       11.49400000      -6.08601000     -18.72381000
H       11.40806000      -8.13798000     -16.62394000
O       10.51687000      -7.82244000     -16.82750000
H       10.56505000      -6.95917000     -16.36938000
