6
Properties=species:S:1:pos:R:3 frame=T 35=T |=T Written=T by=T MDAnalysis=T XYZWriter=T (release=T 2.4.3)=T pbc="F F F"
H       -9.99732000       0.18527000      12.24032000
O       -9.03971000       0.30626000      12.38783000
H       -8.65058000      -0.37767000      11.82274000
H       -7.48158000      -1.91019000      13.57690000
O       -8.34231000      -1.81639000      14.02619000
H       -8.74430000      -1.13757000      13.45049000
