6
Properties=species:S:1:pos:R:3 frame=T 13=T |=T Written=T by=T MDAnalysis=T XYZWriter=T (release=T 2.4.3)=T pbc="F F F"
H       -4.94250000      16.10974000      14.79939000
O       -5.83674000      15.95970000      14.48516000
H       -6.39699000      16.63513000      14.91345000
H       -4.56940000      18.31128000      15.93824000
O       -3.81838000      18.12692000      15.35842000
H       -3.90154000      18.61007000      14.52511000
