6
Properties=species:S:1:pos:R:3 frame=T 24=T |=T Written=T by=T MDAnalysis=T XYZWriter=T (release=T 2.4.3)=T pbc="F F F"
H        5.88987000      18.77338000      -6.70112000
O        5.91697000      18.26582000      -5.89857000
H        5.64399000      17.40365000      -6.26959000
H        3.56233000      17.06468000      -7.32810000
O        3.59599000      16.57146000      -6.50738000
H        3.57646000      17.23664000      -5.80283000
