6
Properties=species:S:1:pos:R:3 frame=T 33=T |=T Written=T by=T MDAnalysis=T XYZWriter=T (release=T 2.4.3)=T pbc="F F F"
H       -2.47660000      -6.78990000      18.24881000
O       -2.64324000      -7.72957000      18.11796000
H       -2.90064000      -8.05142000      18.98698000
H       -0.71447000      -7.94880000      18.75488000
O        0.06874000      -7.42998000      18.94482000
H        0.10814000      -6.73436000      18.24903000
