6
Properties=species:S:1:pos:R:3 frame=T 53=T |=T Written=T by=T MDAnalysis=T XYZWriter=T (release=T 2.4.3)=T pbc="F F F"
H       10.00983000       1.28832000     -17.27153000
O        9.47618000       1.02235000     -16.49618000
H        8.84492000       0.46580000     -16.99389000
H       11.09960000       2.85228000     -17.63279000
O       11.54989000       2.04236000     -17.87773000
H       11.04117000       1.76008000     -18.64851000
