6
Properties=species:S:1:pos:R:3 frame=T 33=T |=T Written=T by=T MDAnalysis=T XYZWriter=T (release=T 2.4.3)=T pbc="F F F"
H       18.38144000     -18.99981000      -5.58332000
O       17.98676000     -18.53135000      -4.84078000
H       18.68238000     -18.49478000      -4.19125000
H       17.27076000     -17.56198000      -8.02785000
O       18.22759000     -17.69103000      -8.10876000
H       18.28819000     -18.55892000      -7.66639000
