6
Properties=species:S:1:pos:R:3 frame=T 8=T |=T Written=T by=T MDAnalysis=T XYZWriter=T (release=T 2.4.3)=T pbc="F F F"
H      -10.47617000      17.85366000       1.79827000
O      -10.54720000      17.98057000       0.84295000
H      -10.87887000      17.14944000       0.50225000
H      -10.51422000      17.89428000       3.68194000
O      -10.66935000      16.97225000       3.51306000
H       -9.78106000      16.70719000       3.21364000
