6
Properties=species:S:1:pos:R:3 frame=T 51=T |=T Written=T by=T MDAnalysis=T XYZWriter=T (release=T 2.4.3)=T pbc="F F F"
H      -16.10486000       8.15649000      17.71242000
O      -15.99707000       8.66013000      16.87698000
H      -15.59453000       8.04162000      16.28643000
H      -18.47546000       8.58843000      16.40720000
O      -18.92616000       8.66222000      15.57863000
H      -18.26735000       8.98332000      14.94684000
