6
Properties=species:S:1:pos:R:3 frame=T 18=T |=T Written=T by=T MDAnalysis=T XYZWriter=T (release=T 2.4.3)=T pbc="F F F"
H       -2.01401000     -13.80489000      14.63248000
O       -2.62896000     -13.15918000      14.26963000
H       -2.30152000     -12.31039000      14.62677000
H       -4.26578000     -12.95428000      16.55415000
O       -4.64208000     -13.64066000      15.96921000
H       -4.05568000     -13.69574000      15.21399000
