6
Properties=species:S:1:pos:R:3 frame=T 8=T |=T Written=T by=T MDAnalysis=T XYZWriter=T (release=T 2.4.3)=T pbc="F F F"
H        8.45401000     -15.56495000      -2.97882000
O        7.98043000     -15.49683000      -3.78753000
H        8.43374000     -16.12752000      -4.37708000
H        6.34160000     -17.19985000      -2.21616000
O        5.90539000     -16.82104000      -3.00564000
H        6.50216000     -16.08197000      -3.22191000
