6
Properties=species:S:1:pos:R:3 frame=T 20=T |=T Written=T by=T MDAnalysis=T XYZWriter=T (release=T 2.4.3)=T pbc="F F F"
H       -9.47197000       7.31148000     -14.79668000
O       -8.80844000       7.88497000     -15.22076000
H       -9.17583000       8.76758000     -14.97741000
H       -6.02121000       5.74571000     -15.64585000
O       -6.96423000       5.70527000     -15.87943000
H       -7.40592000       6.35909000     -15.30659000
