6
Properties=species:S:1:pos:R:3 frame=T 49=T |=T Written=T by=T MDAnalysis=T XYZWriter=T (release=T 2.4.3)=T pbc="F F F"
H       17.02551000      -3.08376000     -16.30502000
O       16.45868000      -2.44794000     -16.75093000
H       17.06001000      -1.79757000     -17.03385000
H       19.00652000      -1.49015000     -16.29724000
O       18.66947000      -0.67792000     -16.71359000
H       18.36374000      -0.16569000     -15.95754000
