6
Properties=species:S:1:pos:R:3 frame=T 37=T |=T Written=T by=T MDAnalysis=T XYZWriter=T (release=T 2.4.3)=T pbc="F F F"
H       -4.56445000       7.70001000       4.24819000
O       -4.68124000       8.58761000       3.92950000
H       -5.50584000       8.54108000       3.41636000
H       -6.09689000       6.78709000       5.97119000
O       -6.25293000       6.40517000       5.10237000
H       -6.99855000       6.90227000       4.71381000
