6
Properties=species:S:1:pos:R:3 frame=T 3=T |=T Written=T by=T MDAnalysis=T XYZWriter=T (release=T 2.4.3)=T pbc="F F F"
H       -4.21154000      16.57994000      12.22856000
O       -5.03394000      16.13886000      12.05545000
H       -5.49892000      16.69323000      11.44099000
H       -4.73332000      15.37686000      10.52225000
O       -4.49638000      14.93002000       9.69125000
H       -4.86898000      15.55600000       9.03349000
