6
Properties=species:S:1:pos:R:3 frame=T 42=T |=T Written=T by=T MDAnalysis=T XYZWriter=T (release=T 2.4.3)=T pbc="F F F"
H        5.58557000      12.09542000     -16.39971000
O        6.38589000      12.09304000     -15.86820000
H        7.06603000      12.16931000     -16.51002000
H        6.73504000      12.77394000     -12.47448000
O        7.11059000      12.88699000     -13.35607000
H        6.36708000      12.67630000     -13.90185000
