6
Properties=species:S:1:pos:R:3 frame=T 52=T |=T Written=T by=T MDAnalysis=T XYZWriter=T (release=T 2.4.3)=T pbc="F F F"
H       -8.00546000     -14.34893000     -12.11775000
O       -8.00322000     -14.74946000     -11.24323000
H       -8.97221000     -14.87192000     -11.13471000
H       -9.65250000     -16.84298000     -13.62244000
O       -9.13038000     -17.30928000     -12.94239000
H       -9.52983000     -16.94983000     -12.10665000
