6
Properties=species:S:1:pos:R:3 frame=T 17=T |=T Written=T by=T MDAnalysis=T XYZWriter=T (release=T 2.4.3)=T pbc="F F F"
H      -11.77592000      -5.88411000     -10.68148000
O      -11.37281000      -6.76105000     -10.78796000
H      -12.08294000      -7.31624000     -11.14217000
H      -11.87109000      -6.73602000     -13.21448000
O      -12.31685000      -5.90758000     -13.38266000
H      -11.54578000      -5.31741000     -13.45157000
