6
Properties=species:S:1:pos:R:3 frame=T 40=T |=T Written=T by=T MDAnalysis=T XYZWriter=T (release=T 2.4.3)=T pbc="F F F"
H        5.79989000     -16.76510000      -2.27848000
O        6.18015000     -15.87179000      -2.23618000
H        5.44403000     -15.30473000      -2.12566000
H        3.76284000     -15.23837000      -1.81786000
O        3.94352000     -14.30744000      -1.99045000
H        4.01341000     -13.89289000      -1.11696000
