6
Properties=species:S:1:pos:R:3 frame=T 17=T |=T Written=T by=T MDAnalysis=T XYZWriter=T (release=T 2.4.3)=T pbc="F F F"
H       16.21325000       3.69497000       0.42817000
O       15.46982000       3.10036000       0.62964000
H       15.30485000       3.28922000       1.54349000
H       14.97776000       3.79433000       4.37204000
O       14.74452000       3.90568000       3.44245000
H       14.22604000       4.70219000       3.42655000
