6
Properties=species:S:1:pos:R:3 frame=T 4=T |=T Written=T by=T MDAnalysis=T XYZWriter=T (release=T 2.4.3)=T pbc="F F F"
H      -12.32260000       5.72173000      -3.63272000
O      -11.96257000       5.59088000      -4.51045000
H      -11.33230000       6.32204000      -4.57988000
H      -11.27202000       3.90361000      -5.64618000
O      -10.83897000       3.43306000      -6.37387000
H       -9.90220000       3.60484000      -6.27350000
