6
Properties=species:S:1:pos:R:3 frame=T 2=T |=T Written=T by=T MDAnalysis=T XYZWriter=T (release=T 2.4.3)=T pbc="F F F"
H       17.73860000     -17.33709000      -1.75752000
O       18.21518000     -16.66621000      -2.25976000
H       19.14302000     -16.74916000      -1.97271000
H       17.27247000     -15.73951000      -3.79747000
O       17.50704000     -15.31368000      -4.62083000
H       16.87891000     -14.58416000      -4.64383000
