6
Properties=species:S:1:pos:R:3 frame=T 9=T |=T Written=T by=T MDAnalysis=T XYZWriter=T (release=T 2.4.3)=T pbc="F F F"
H       -9.17378000      -4.67810000     -12.92594000
O       -9.65950000      -4.62170000     -12.07659000
H      -10.11094000      -5.48583000     -12.11078000
H       -9.24374000      -6.15206000     -14.48724000
O       -8.56802000      -5.53819000     -14.21520000
H       -8.41633000      -4.94925000     -14.95726000
