6
Properties=species:S:1:pos:R:3 frame=T 29=T |=T Written=T by=T MDAnalysis=T XYZWriter=T (release=T 2.4.3)=T pbc="F F F"
H      -18.03321000      12.71913000     -13.21696000
O      -18.37664000      13.30595000     -13.87996000
H      -18.23475000      14.16808000     -13.47506000
H      -17.13576000      15.37645000     -11.07254000
O      -17.89181000      14.78474000     -11.12154000
H      -17.66635000      14.04052000     -10.56691000
