6
Properties=species:S:1:pos:R:3 frame=T 2=T |=T Written=T by=T MDAnalysis=T XYZWriter=T (release=T 2.4.3)=T pbc="F F F"
H      -17.14206000     -16.12045000     -13.69023000
O      -16.20826000     -16.05060000     -13.82149000
H      -16.14145000     -15.65214000     -14.72497000
H      -18.42345000     -15.71180000     -16.32854000
O      -18.11627000     -15.14584000     -15.58338000
H      -17.34394000     -14.69803000     -15.93005000
