6
Properties=species:S:1:pos:R:3 frame=T 40=T |=T Written=T by=T MDAnalysis=T XYZWriter=T (release=T 2.4.3)=T pbc="F F F"
H      -18.90898000      -1.91184000      15.61413000
O      -18.38567000      -2.61789000      15.24085000
H      -18.54125000      -2.41168000      14.28967000
H      -18.25286000      -3.81388000      17.06777000
O      -18.58205000      -4.72209000      17.20352000
H      -19.13712000      -4.66789000      17.97561000
