6
Properties=species:S:1:pos:R:3 frame=T 52=T |=T Written=T by=T MDAnalysis=T XYZWriter=T (release=T 2.4.3)=T pbc="F F F"
H       15.62830000      -4.63717000      16.45509000
O       16.33294000      -4.02259000      16.16910000
H       16.29087000      -4.09537000      15.20592000
H       18.05169000      -4.64814000      17.24267000
O       18.89146000      -5.02800000      17.57686000
H       19.18446000      -4.37903000      18.25562000
