6
Properties=species:S:1:pos:R:3 frame=T 33=T |=T Written=T by=T MDAnalysis=T XYZWriter=T (release=T 2.4.3)=T pbc="F F F"
H      -17.54729000       5.07418000      -4.63587000
O      -17.67142000       4.26065000      -5.10716000
H      -16.89123000       4.20532000      -5.68021000
H      -18.29956000       6.44145000      -6.78575000
O      -19.24056000       6.43291000      -6.50442000
H      -19.30843000       5.71836000      -5.87582000
