6
Properties=species:S:1:pos:R:3 frame=T 6=T |=T Written=T by=T MDAnalysis=T XYZWriter=T (release=T 2.4.3)=T pbc="F F F"
H       16.66758000      -3.25492000      -7.47138000
O       17.51385000      -2.81924000      -7.62662000
H       17.50973000      -2.45032000      -8.52216000
H       14.74606000      -4.04872000      -7.09273000
O       15.24204000      -4.39963000      -6.33639000
H       14.60728000      -4.96526000      -5.84157000
