6
Properties=species:S:1:pos:R:3 frame=T 23=T |=T Written=T by=T MDAnalysis=T XYZWriter=T (release=T 2.4.3)=T pbc="F F F"
H       -6.17621000     -14.99351000       3.35233000
O       -6.50024000     -14.69003000       2.49629000
H       -7.45250000     -14.80976000       2.61389000
H       -7.68033000     -16.11597000       4.66324000
O       -6.75219000     -16.33177000       4.76955000
H       -6.76974000     -17.25072000       4.43694000
