6
Properties=species:S:1:pos:R:3 frame=T 29=T |=T Written=T by=T MDAnalysis=T XYZWriter=T (release=T 2.4.3)=T pbc="F F F"
H        8.28437000      -2.31141000       1.64179000
O        8.56883000      -3.17470000       1.98427000
H        9.36024000      -3.40193000       1.50728000
H        6.83130000      -3.14463000       1.58663000
O        5.97448000      -2.79942000       1.88112000
H        6.10086000      -2.72229000       2.84483000
