6
Properties=species:S:1:pos:R:3 frame=T 22=T |=T Written=T by=T MDAnalysis=T XYZWriter=T (release=T 2.4.3)=T pbc="F F F"
H      -10.90135000     -16.86959000       6.66802000
O      -10.96036000     -16.74110000       5.73743000
H      -11.88173000     -16.64158000       5.51193000
H      -11.38120000     -15.86872000       8.37963000
O      -11.17786000     -16.80058000       8.53007000
H      -12.00614000     -17.27393000       8.43708000
