6
Properties=species:S:1:pos:R:3 frame=T 45=T |=T Written=T by=T MDAnalysis=T XYZWriter=T (release=T 2.4.3)=T pbc="F F F"
H        8.18467000      14.89531000       5.64488000
O        8.92848000      14.26563000       5.59894000
H        8.59896000      13.50772000       5.10013000
H        8.99042000      15.69977000       3.50160000
O        9.57877000      16.33438000       3.08901000
H        9.16374000      17.19023000       3.26634000
