6
Properties=species:S:1:pos:R:3 frame=T 14=T |=T Written=T by=T MDAnalysis=T XYZWriter=T (release=T 2.4.3)=T pbc="F F F"
H       11.36573000     -14.77559000      12.92884000
O       10.96589000     -13.95920000      12.60529000
H       11.62113000     -13.59493000      11.96612000
H       12.61240000     -11.88251000       9.96312000
O       12.79227000     -12.60742000      10.55534000
H       13.57977000     -12.35952000      11.02984000
