6
Properties=species:S:1:pos:R:3 frame=T 15=T |=T Written=T by=T MDAnalysis=T XYZWriter=T (release=T 2.4.3)=T pbc="F F F"
H      -16.46104000      17.35962000      17.93749000
O      -17.18951000      17.65177000      17.37243000
H      -17.96185000      17.33497000      17.80279000
H      -16.07580000      18.12298000      14.15815000
O      -15.59193000      18.42548000      14.92370000
H      -16.18418000      18.21074000      15.64859000
