6
Properties=species:S:1:pos:R:3 frame=T 25=T |=T Written=T by=T MDAnalysis=T XYZWriter=T (release=T 2.4.3)=T pbc="F F F"
H        6.00191000     -18.90533000     -14.86567000
O        6.86343000     -18.74962000     -14.45890000
H        6.60916000     -18.02543000     -13.80398000
H        5.35221000     -16.54661000     -12.97494000
O        6.19944000     -16.85168000     -12.68161000
H        6.04953000     -17.61797000     -12.13640000
