6
Properties=species:S:1:pos:R:3 frame=T 19=T |=T Written=T by=T MDAnalysis=T XYZWriter=T (release=T 2.4.3)=T pbc="F F F"
H        2.08564000     -10.25624000     -15.12499000
O        1.56715000      -9.95076000     -14.38672000
H        2.02070000      -9.16072000     -14.12440000
H        3.51423000      -7.58583000     -12.67590000
O        3.18513000      -7.45060000     -13.58330000
H        2.80953000      -6.57727000     -13.58355000
