6
Properties=species:S:1:pos:R:3 frame=T 42=T |=T Written=T by=T MDAnalysis=T XYZWriter=T (release=T 2.4.3)=T pbc="F F F"
H       -4.61558000     -10.74969000       1.34653000
O       -4.03530000     -10.31773000       1.97232000
H       -3.17368000     -10.65666000       1.72512000
H       -2.56466000     -12.21959000       2.37468000
O       -1.79925000     -11.76124000       2.65471000
H       -2.03938000     -11.41393000       3.52486000
