6
Properties=species:S:1:pos:R:3 frame=T 36=T |=T Written=T by=T MDAnalysis=T XYZWriter=T (release=T 2.4.3)=T pbc="F F F"
H      -15.63123000      -9.61882000      -8.04192000
O      -16.31559000     -10.29809000      -8.23292000
H      -16.01477000     -10.68487000      -9.07649000
H      -15.27624000     -12.08209000     -11.37638000
O      -15.95921000     -11.87528000     -10.72735000
H      -16.35205000     -12.74270000     -10.55820000
