6
Properties=species:S:1:pos:R:3 frame=T 14=T |=T Written=T by=T MDAnalysis=T XYZWriter=T (release=T 2.4.3)=T pbc="F F F"
H       17.39100000     -17.58319000      -2.85337000
O       16.67282000     -18.00878000      -2.38698000
H       15.99663000     -18.17695000      -3.04560000
H       15.42010000     -15.77855000      -1.28744000
O       16.23236000     -15.30702000      -1.27157000
H       16.40958000     -15.17875000      -2.20031000
