6
Properties=species:S:1:pos:R:3 frame=T 15=T |=T Written=T by=T MDAnalysis=T XYZWriter=T (release=T 2.4.3)=T pbc="F F F"
H       19.08851000      -3.26354000      15.76688000
O       18.67661000      -3.17162000      14.88069000
H       18.82100000      -4.02496000      14.47066000
H       17.65002000      -4.50904000      17.92776000
O       18.50758000      -4.08586000      17.73136000
H       18.57709000      -3.39429000      18.41446000
