6
Properties=species:S:1:pos:R:3 frame=T 5=T |=T Written=T by=T MDAnalysis=T XYZWriter=T (release=T 2.4.3)=T pbc="F F F"
H       -6.31030000     -16.51561000      -3.09666000
O       -5.60667000     -16.03259000      -2.62873000
H       -4.84899000     -16.36102000      -3.09627000
H       -3.16582000     -17.13608000      -4.25968000
O       -4.02951000     -17.56392000      -4.29042000
H       -3.97935000     -17.98379000      -3.44956000
