6
Properties=species:S:1:pos:R:3 frame=T 24=T |=T Written=T by=T MDAnalysis=T XYZWriter=T (release=T 2.4.3)=T pbc="F F F"
H      -11.31764000     -13.51943000       4.18683000
O      -11.46631000     -14.33687000       4.67332000
H      -12.24494000     -14.66942000       4.18287000
H      -12.89472000     -12.68260000       3.52842000
O      -12.09264000     -12.53979000       2.97811000
H      -12.16641000     -13.14409000       2.20287000
