6
Properties=species:S:1:pos:R:3 frame=T 51=T |=T Written=T by=T MDAnalysis=T XYZWriter=T (release=T 2.4.3)=T pbc="F F F"
H       -9.77125000       2.19079000     -16.53353000
O       -9.49638000       2.81392000     -17.21219000
H       -9.24244000       2.21512000     -17.93248000
H      -11.30078000       4.98430000     -14.46732000
O      -10.98138000       4.10052000     -14.14978000
H      -10.86640000       3.57869000     -14.95142000
