6
Properties=species:S:1:pos:R:3 frame=T 41=T |=T Written=T by=T MDAnalysis=T XYZWriter=T (release=T 2.4.3)=T pbc="F F F"
H        8.91592000     -13.82004000       3.85306000
O        8.44226000     -14.14655000       3.06630000
H        8.76154000     -13.62307000       2.29989000
H       10.50272000     -13.47325000       3.74449000
O       11.25265000     -14.04379000       3.52618000
H       10.91668000     -14.63026000       2.85402000
