6
Properties=species:S:1:pos:R:3 frame=T 31=T |=T Written=T by=T MDAnalysis=T XYZWriter=T (release=T 2.4.3)=T pbc="F F F"
H      -14.88154000     -10.94427000      16.40817000
O      -14.64760000     -11.86442000      16.69753000
H      -15.24478000     -12.00708000      17.43954000
H      -15.74426000     -14.65801000      18.05845000
O      -15.35525000     -14.67555000      17.16238000
H      -15.34479000     -15.60059000      16.90330000
