6
Properties=species:S:1:pos:R:3 frame=T 51=T |=T Written=T by=T MDAnalysis=T XYZWriter=T (release=T 2.4.3)=T pbc="F F F"
H      -10.15545000      -0.02572000      13.00487000
O       -9.52278000       0.39356000      12.40081000
H       -9.95875000       1.19445000      12.09608000
H       -9.43214000      -1.63871000      15.64105000
O      -10.16499000      -1.19292000      15.18392000
H      -10.05831000      -1.47278000      14.26114000
