6
Properties=species:S:1:pos:R:3 frame=T 8=T |=T Written=T by=T MDAnalysis=T XYZWriter=T (release=T 2.4.3)=T pbc="F F F"
H       -3.77854000       7.49414000     -11.45001000
O       -4.49890000       7.95294000     -11.89214000
H       -4.24602000       8.86614000     -11.78506000
H       -1.68833000       8.59271000     -13.46744000
O       -1.89681000       7.69475000     -13.10152000
H       -2.80853000       7.78795000     -12.79872000
