6
Properties=species:S:1:pos:R:3 frame=T 28=T |=T Written=T by=T MDAnalysis=T XYZWriter=T (release=T 2.4.3)=T pbc="F F F"
H        3.39290000      -6.81844000      -4.39474000
O        4.25665000      -6.39046000      -4.42299000
H        4.04114000      -5.47699000      -4.68800000
H        1.35662000      -5.86683000      -2.89814000
O        1.01099000      -5.61832000      -3.74989000
H        1.28231000      -6.31641000      -4.35397000
