6
Properties=species:S:1:pos:R:3 frame=T 34=T |=T Written=T by=T MDAnalysis=T XYZWriter=T (release=T 2.4.3)=T pbc="F F F"
H       14.96089000      -3.04932000      10.79375000
O       15.86733000      -2.70746000      10.65882000
H       15.98689000      -2.10539000      11.43565000
H       15.18558000      -5.39804000      12.12246000
O       15.66734000      -5.26602000      11.29247000
H       15.94740000      -4.33428000      11.25362000
