6
Properties=species:S:1:pos:R:3 frame=T 3=T |=T Written=T by=T MDAnalysis=T XYZWriter=T (release=T 2.4.3)=T pbc="F F F"
H      -14.52729000       2.14069000       0.03094000
O      -14.07316000       2.73132000       0.63924000
H      -14.02949000       3.57916000       0.15602000
H      -13.97478000       2.65282000      -2.36324000
O      -14.16781000       1.92386000      -1.79301000
H      -15.07932000       1.72022000      -2.08561000
