6
Properties=species:S:1:pos:R:3 frame=T 15=T |=T Written=T by=T MDAnalysis=T XYZWriter=T (release=T 2.4.3)=T pbc="F F F"
H       -8.51085000      -7.68499000      18.42951000
O       -9.04043000      -6.91750000      18.57567000
H       -9.91743000      -7.13094000      18.21524000
H      -11.05745000      -8.18382000      18.68518000
O      -11.47646000      -7.91932000      17.87558000
H      -12.23960000      -7.43352000      18.17698000
