6
Properties=species:S:1:pos:R:3 frame=T 14=T |=T Written=T by=T MDAnalysis=T XYZWriter=T (release=T 2.4.3)=T pbc="F F F"
H       -2.79951000      -9.42636000       6.61762000
O       -3.46009000      -9.10150000       5.97176000
H       -4.01120000      -8.42809000       6.41040000
H       -4.52466000      -9.74269000       7.46538000
O       -5.38626000      -9.96101000       7.91254000
H       -5.02394000     -10.18198000       8.76764000
