6
Properties=species:S:1:pos:R:3 frame=T 53=T |=T Written=T by=T MDAnalysis=T XYZWriter=T (release=T 2.4.3)=T pbc="F F F"
H       -9.89694000      -3.91278000      17.64600000
O       -9.87253000      -2.94719000      17.62485000
H       -8.94522000      -2.72068000      17.70164000
H       -7.18604000      -1.74712000      17.99706000
O       -7.28545000      -2.70392000      17.78610000
H       -7.38947000      -3.09519000      18.66187000
