6
Properties=species:S:1:pos:R:3 frame=T 52=T |=T Written=T by=T MDAnalysis=T XYZWriter=T (release=T 2.4.3)=T pbc="F F F"
H       14.30589000      -8.08795000     -13.07327000
O       14.90668000      -8.14687000     -13.82765000
H       15.78018000      -8.17997000     -13.37604000
H       15.44520000      -5.79874000     -14.73596000
O       15.21649000      -6.24693000     -15.57706000
H       14.97111000      -7.14758000     -15.34585000
