6
Properties=species:S:1:pos:R:3 frame=T 44=T |=T Written=T by=T MDAnalysis=T XYZWriter=T (release=T 2.4.3)=T pbc="F F F"
H      -18.75432000      11.30878000     -12.46776000
O      -17.86846000      11.61427000     -12.14429000
H      -17.98634000      12.56362000     -12.20167000
H      -17.09979000      11.48836000     -14.81988000
O      -16.22984000      11.88219000     -14.64646000
H      -15.98446000      11.59027000     -13.75780000
