6
Properties=species:S:1:pos:R:3 frame=T 25=T |=T Written=T by=T MDAnalysis=T XYZWriter=T (release=T 2.4.3)=T pbc="F F F"
H        1.40774000      -3.87861000      -1.35314000
O        0.64722000      -4.47864000      -1.29502000
H        0.31407000      -4.46136000      -2.19236000
H        0.43654000      -1.70902000      -2.00239000
O       -0.47392000      -1.66387000      -2.36305000
H       -0.26434000      -1.93014000      -3.27830000
