6
Properties=species:S:1:pos:R:3 frame=T 21=T |=T Written=T by=T MDAnalysis=T XYZWriter=T (release=T 2.4.3)=T pbc="F F F"
H       -6.43161000     -18.13717000     -18.70298000
O       -6.37712000     -19.06342000     -18.39178000
H       -6.67571000     -18.90070000     -17.46409000
H       -4.78252000     -17.60388000     -16.50565000
O       -4.75019000     -18.32112000     -15.87310000
H       -5.69228000     -18.50634000     -15.69905000
