6
Properties=species:S:1:pos:R:3 frame=T 45=T |=T Written=T by=T MDAnalysis=T XYZWriter=T (release=T 2.4.3)=T pbc="F F F"
H      -17.58321000      15.62019000      10.73613000
O      -17.02102000      16.38180000      10.85367000
H      -16.72579000      16.25963000      11.75692000
H      -16.63325000      18.57209000       8.17845000
O      -17.14499000      17.77269000       8.32834000
H      -16.98478000      17.51241000       9.22143000
