6
Properties=species:S:1:pos:R:3 frame=T 10=T |=T Written=T by=T MDAnalysis=T XYZWriter=T (release=T 2.4.3)=T pbc="F F F"
H       11.26462000     -10.60024000       0.40335000
O       10.98511000     -10.03402000      -0.32970000
H       10.02701000      -9.91955000      -0.15461000
H        8.59074000     -11.26269000       0.00445000
O        8.16889000     -10.51411000       0.46251000
H        8.00300000      -9.93252000      -0.26217000
