6
Properties=species:S:1:pos:R:3 frame=T 33=T |=T Written=T by=T MDAnalysis=T XYZWriter=T (release=T 2.4.3)=T pbc="F F F"
H      -16.76496000      10.99830000      12.39882000
O      -16.63347000      11.83232000      12.79960000
H      -15.73502000      12.12479000      12.59285000
H      -13.56819000      11.67197000      11.11564000
O      -14.46444000      11.45087000      10.79756000
H      -14.26203000      10.91708000      10.01103000
