6
Properties=species:S:1:pos:R:3 frame=T 25=T |=T Written=T by=T MDAnalysis=T XYZWriter=T (release=T 2.4.3)=T pbc="F F F"
H       17.06081000       6.60825000      18.60457000
O       16.79690000       5.84603000      18.12018000
H       16.18741000       5.45043000      18.72987000
H       15.53568000       6.01003000      14.81353000
O       16.26765000       6.29877000      15.36117000
H       16.21984000       5.70569000      16.11987000
