6
Properties=species:S:1:pos:R:3 frame=T 54=T |=T Written=T by=T MDAnalysis=T XYZWriter=T (release=T 2.4.3)=T pbc="F F F"
H        4.61735000      15.25854000     -17.56156000
O        4.84047000      15.47271000     -18.48710000
H        5.64126000      14.96816000     -18.63640000
H        6.77059000      17.06286000     -17.24869000
O        6.36292000      17.02682000     -16.34552000
H        5.79911000      17.81760000     -16.35921000
