6
Properties=species:S:1:pos:R:3 frame=T 47=T |=T Written=T by=T MDAnalysis=T XYZWriter=T (release=T 2.4.3)=T pbc="F F F"
H       -1.58526000       6.08173000       5.98458000
O       -1.41020000       5.75750000       5.10573000
H       -0.42593000       5.70143000       5.05973000
H        0.82511000       4.25707000       3.40553000
O        1.15944000       4.79233000       4.17450000
H        2.02267000       4.40729000       4.34797000
