6
Properties=species:S:1:pos:R:3 frame=T 42=T |=T Written=T by=T MDAnalysis=T XYZWriter=T (release=T 2.4.3)=T pbc="F F F"
H      -14.74633000       8.53307000      -3.45618000
O      -15.53418000       8.98429000      -3.72821000
H      -15.19071000       9.80956000      -4.06525000
H      -13.16235000       6.87773000      -1.62007000
O      -13.70926000       6.80788000      -2.39047000
H      -14.57080000       6.71892000      -1.97490000
