6
Properties=species:S:1:pos:R:3 frame=T 30=T |=T Written=T by=T MDAnalysis=T XYZWriter=T (release=T 2.4.3)=T pbc="F F F"
H       -6.80671000     -10.12673000       0.56775000
O       -5.98451000      -9.71593000       0.28049000
H       -6.24854000      -8.80866000       0.11210000
H       -7.16222000      -7.39697000      -0.63463000
O       -6.26212000      -7.32440000      -0.98527000
H       -6.23832000      -7.93332000      -1.75354000
