6
Properties=species:S:1:pos:R:3 frame=T 27=T |=T Written=T by=T MDAnalysis=T XYZWriter=T (release=T 2.4.3)=T pbc="F F F"
H        3.15984000      16.67991000       4.70889000
O        3.52020000      16.64103000       3.81732000
H        3.13929000      15.88326000       3.41279000
H        4.40588000      13.79269000       4.73505000
O        3.47738000      13.57657000       4.87868000
H        2.99710000      14.16806000       4.29066000
