6
Properties=species:S:1:pos:R:3 frame=T 40=T |=T Written=T by=T MDAnalysis=T XYZWriter=T (release=T 2.4.3)=T pbc="F F F"
H       11.03560000       1.90268000     -15.08013000
O       10.15345000       2.26391000     -15.06038000
H        9.78296000       1.90993000     -14.21782000
H       11.42301000       4.11138000     -15.58797000
O       12.27142000       3.81209000     -15.89703000
H       12.38011000       2.94842000     -15.44993000
