6
Properties=species:S:1:pos:R:3 frame=T 38=T |=T Written=T by=T MDAnalysis=T XYZWriter=T (release=T 2.4.3)=T pbc="F F F"
H       -0.22872000      -4.39756000      17.71268000
O       -0.72435000      -4.29354000      16.89555000
H       -0.03692000      -4.19102000      16.19197000
H       -3.70732000      -4.16904000      17.37015000
O       -3.23320000      -3.39246000      17.73730000
H       -2.53613000      -3.73435000      18.29335000
