6
Properties=species:S:1:pos:R:3 frame=T 0=T |=T Written=T by=T MDAnalysis=T XYZWriter=T (release=T 2.4.3)=T pbc="F F F"
H       -5.00677000       0.35827000      -5.54761000
O       -5.38152000      -0.52865000      -5.49578000
H       -5.90666000      -0.47065000      -4.68963000
H       -6.91008000       0.13320000      -5.94512000
O       -7.64199000       0.77080000      -6.01464000
H       -8.27666000       0.33784000      -6.60074000
