6
Properties=species:S:1:pos:R:3 frame=T 16=T |=T Written=T by=T MDAnalysis=T XYZWriter=T (release=T 2.4.3)=T pbc="F F F"
H       10.37793000      16.95932000       9.57298000
O       10.78206000      16.86450000      10.43979000
H       11.06596000      15.94583000      10.38253000
H        9.79708000      16.55164000       6.83229000
O        9.26637000      16.57374000       7.64888000
H        8.96411000      15.66402000       7.70400000
