6
Properties=species:S:1:pos:R:3 frame=T 38=T |=T Written=T by=T MDAnalysis=T XYZWriter=T (release=T 2.4.3)=T pbc="F F F"
H       15.13796000      -0.53932000       5.43923000
O       15.26254000      -1.29672000       6.00060000
H       15.13503000      -0.92732000       6.87511000
H       14.16711000       1.53683000       6.42069000
O       13.81356000       0.98397000       5.73733000
H       12.94948000       0.80899000       6.09505000
