6
Properties=species:S:1:pos:R:3 frame=T 4=T |=T Written=T by=T MDAnalysis=T XYZWriter=T (release=T 2.4.3)=T pbc="F F F"
H      -17.94353000     -16.05722000       1.22875000
O      -17.97549000     -15.14361000       1.55398000
H      -17.45354000     -15.15602000       2.37461000
H      -18.10377000     -12.98987000      -0.57297000
O      -19.00493000     -13.34842000      -0.66663000
H      -19.07186000     -13.96101000       0.08936000
