6
Properties=species:S:1:pos:R:3 frame=T 43=T |=T Written=T by=T MDAnalysis=T XYZWriter=T (release=T 2.4.3)=T pbc="F F F"
H       -2.57279000     -10.91898000       0.64905000
O       -2.27479000     -11.26064000      -0.21732000
H       -3.09846000     -11.50118000      -0.66347000
H       -4.47044000     -10.02389000       1.34004000
O       -4.06761000     -10.66846000       1.93224000
H       -4.67069000     -11.44272000       1.90182000
