6
Properties=species:S:1:pos:R:3 frame=T 18=T |=T Written=T by=T MDAnalysis=T XYZWriter=T (release=T 2.4.3)=T pbc="F F F"
H      -13.30386000       8.83755000     -18.57287000
O      -13.48919000       9.76685000     -18.29684000
H      -14.20759000       9.69764000     -17.63517000
H      -12.75212000       7.25576000     -19.44359000
O      -13.54087000       7.07611000     -18.91594000
H      -13.25721000       6.97882000     -18.00242000
