6
Properties=species:S:1:pos:R:3 frame=T 41=T |=T Written=T by=T MDAnalysis=T XYZWriter=T (release=T 2.4.3)=T pbc="F F F"
H       15.91028000      -1.89890000      16.40446000
O       16.33727000      -1.61667000      15.58892000
H       16.66637000      -0.76627000      15.81792000
H       18.14981000      -2.14301000      15.79083000
O       19.08124000      -1.90152000      15.70930000
H       18.99585000      -1.06862000      15.21932000
