6
Properties=species:S:1:pos:R:3 frame=T 14=T |=T Written=T by=T MDAnalysis=T XYZWriter=T (release=T 2.4.3)=T pbc="F F F"
H      -15.77863000      -5.79337000      12.81563000
O      -16.67994000      -5.59695000      13.11740000
H      -16.98819000      -6.42557000      13.46950000
H      -12.69506000      -5.31041000      13.17239000
O      -13.51656000      -5.33911000      12.67462000
H      -13.23907000      -5.45935000      11.76036000
