6
Properties=species:S:1:pos:R:3 frame=T 10=T |=T Written=T by=T MDAnalysis=T XYZWriter=T (release=T 2.4.3)=T pbc="F F F"
H        7.20585000       3.33764000     -18.99051000
O        7.97841000       2.76797000     -19.07407000
H        7.92362000       2.29792000     -18.20977000
H        9.65287000       4.86396000     -18.93746000
O        9.89327000       5.40060000     -18.13778000
H       10.39087000       6.15913000     -18.46769000
