6
Properties=species:S:1:pos:R:3 frame=T 30=T |=T Written=T by=T MDAnalysis=T XYZWriter=T (release=T 2.4.3)=T pbc="F F F"
H       15.70073000      18.38274000       9.51874000
O       15.83561000      17.74533000       8.78130000
H       16.42962000      17.08180000       9.16304000
H       14.92060000      17.74227000       6.43334000
O       15.17268000      16.99457000       5.86166000
H       15.88135000      17.38760000       5.33793000
