6
Properties=species:S:1:pos:R:3 frame=T 14=T |=T Written=T by=T MDAnalysis=T XYZWriter=T (release=T 2.4.3)=T pbc="F F F"
H       -2.51405000      10.30511000      -3.28833000
O       -3.44293000      10.49873000      -3.13086000
H       -3.75576000       9.67511000      -2.66697000
H       -4.64014000      13.37768000      -4.42731000
O       -4.12966000      12.74712000      -4.95637000
H       -3.90349000      12.11366000      -4.26037000
