6
Properties=species:S:1:pos:R:3 frame=T 16=T |=T Written=T by=T MDAnalysis=T XYZWriter=T (release=T 2.4.3)=T pbc="F F F"
H      -12.65904000       3.60515000      -8.30076000
O      -13.48283000       3.42467000      -7.83804000
H      -14.13989000       3.90326000      -8.36554000
H      -11.33720000       3.49062000     -10.58770000
O      -11.84389000       3.36126000      -9.77838000
H      -12.73420000       3.15699000     -10.09085000
