6
Properties=species:S:1:pos:R:3 frame=T 31=T |=T Written=T by=T MDAnalysis=T XYZWriter=T (release=T 2.4.3)=T pbc="F F F"
H        6.96616000      13.20412000      -2.67219000
O        7.59726000      13.65399000      -3.22655000
H        8.32829000      13.03636000      -3.35311000
H        5.78403000      12.45296000      -5.55084000
O        6.10005000      12.23338000      -4.67462000
H        6.63154000      13.03825000      -4.47152000
