6
Properties=species:S:1:pos:R:3 frame=T 45=T |=T Written=T by=T MDAnalysis=T XYZWriter=T (release=T 2.4.3)=T pbc="F F F"
H      -13.03592000      -7.49134000     -15.72137000
O      -13.01837000      -7.55393000     -16.66956000
H      -12.87837000      -6.62335000     -16.94199000
H      -15.07174000      -5.85163000     -14.90672000
O      -15.14907000      -6.82209000     -14.98348000
H      -15.19808000      -6.97215000     -15.93731000
