6
Properties=species:S:1:pos:R:3 frame=T 47=T |=T Written=T by=T MDAnalysis=T XYZWriter=T (release=T 2.4.3)=T pbc="F F F"
H       -3.90653000      15.31886000       8.83731000
O       -4.13089000      16.16382000       9.24300000
H       -3.76602000      16.10749000      10.14137000
H       -4.55513000      13.78262000       9.14624000
O       -3.89319000      13.68188000       8.43069000
H       -3.28798000      13.01231000       8.79526000
