6
Properties=species:S:1:pos:R:3 frame=T 34=T |=T Written=T by=T MDAnalysis=T XYZWriter=T (release=T 2.4.3)=T pbc="F F F"
H      -18.35151000      -1.38889000      13.80192000
O      -18.26022000      -1.38322000      12.84233000
H      -19.11879000      -1.04682000      12.61589000
H      -18.56681000      -0.26774000      16.27922000
O      -18.35107000      -0.76435000      15.46910000
H      -18.53708000      -0.15337000      14.74405000
