6
Properties=species:S:1:pos:R:3 frame=T 42=T |=T Written=T by=T MDAnalysis=T XYZWriter=T (release=T 2.4.3)=T pbc="F F F"
H       13.54039000     -13.66553000       4.91046000
O       13.51589000     -14.21133000       4.14029000
H       12.77514000     -14.80112000       4.26728000
H       10.84621000     -16.72210000       4.98153000
O       11.78712000     -16.49032000       4.86059000
H       12.24112000     -17.22516000       5.25925000
