6
Properties=species:S:1:pos:R:3 frame=T 36=T |=T Written=T by=T MDAnalysis=T XYZWriter=T (release=T 2.4.3)=T pbc="F F F"
H      -13.68553000     -17.79057000     -13.88847000
O      -13.48961000     -18.74063000     -13.88141000
H      -12.87384000     -18.83570000     -13.12804000
H      -14.64359000     -17.22675000     -11.37704000
O      -15.20666000     -16.66820000     -11.92008000
H      -15.56298000     -17.27574000     -12.57650000
