6
Properties=species:S:1:pos:R:3 frame=T 15=T |=T Written=T by=T MDAnalysis=T XYZWriter=T (release=T 2.4.3)=T pbc="F F F"
H       -2.47995000       8.90623000      15.67225000
O       -2.95060000       9.72895000      15.70744000
H       -3.90365000       9.56349000      15.71472000
H       -3.13274000      10.26339000      13.26774000
O       -3.11563000      11.14633000      12.86600000
H       -3.23207000      11.75078000      13.61550000
