6
Properties=species:S:1:pos:R:3 frame=T 13=T |=T Written=T by=T MDAnalysis=T XYZWriter=T (release=T 2.4.3)=T pbc="F F F"
H      -16.81206000      -2.11293000       4.81058000
O      -16.37925000      -2.93463000       5.03702000
H      -17.13940000      -3.53352000       4.86404000
H      -17.61529000      -1.39274000       2.99437000
O      -17.43836000      -0.70690000       3.62551000
H      -16.47137000      -0.63546000       3.54012000
