6
Properties=species:S:1:pos:R:3 frame=T 24=T |=T Written=T by=T MDAnalysis=T XYZWriter=T (release=T 2.4.3)=T pbc="F F F"
H      -19.16755000      -2.18158000      17.59098000
O      -18.65654000      -1.35470000      17.63554000
H      -19.17688000      -0.82323000      18.25114000
H      -19.46322000      -1.16074000      15.21721000
O      -18.96944000      -0.51917000      14.70010000
H      -18.04923000      -0.78820000      14.88113000
