6
Properties=species:S:1:pos:R:3 frame=T 46=T |=T Written=T by=T MDAnalysis=T XYZWriter=T (release=T 2.4.3)=T pbc="F F F"
H       -3.65585000       7.23922000       5.08424000
O       -3.94517000       8.00619000       4.64554000
H       -3.91964000       8.69548000       5.34345000
H       -3.58916000       8.59707000       1.24459000
O       -3.22568000       9.06754000       2.01534000
H       -3.61937000       8.59021000       2.74114000
