6
Properties=species:S:1:pos:R:3 frame=T 12=T |=T Written=T by=T MDAnalysis=T XYZWriter=T (release=T 2.4.3)=T pbc="F F F"
H       -9.13646000     -10.95569000      -1.06856000
O       -8.29405000     -11.08585000      -0.58284000
H       -7.85107000     -11.77638000      -1.10488000
H      -11.77081000     -11.47347000      -0.05628000
O      -11.06502000     -11.79838000      -0.64332000
H      -11.18236000     -12.77288000      -0.65965000
