6
Properties=species:S:1:pos:R:3 frame=T 30=T |=T Written=T by=T MDAnalysis=T XYZWriter=T (release=T 2.4.3)=T pbc="F F F"
H      -15.94212000     -12.93879000      -8.96455000
O      -15.70916000     -13.61723000      -9.60496000
H      -16.24864000     -14.37568000      -9.35455000
H      -15.05839000     -16.00901000      -7.69361000
O      -14.70248000     -15.20794000      -7.27155000
H      -15.00538000     -14.47495000      -7.82038000
