6
Properties=species:S:1:pos:R:3 frame=T 24=T |=T Written=T by=T MDAnalysis=T XYZWriter=T (release=T 2.4.3)=T pbc="F F F"
H       12.67268000       2.20752000     -11.08182000
O       13.31457000       2.22944000     -11.77021000
H       13.87007000       1.50030000     -11.50154000
H       11.60493000       2.31453000      -9.64608000
O       10.86985000       1.93500000     -10.14160000
H       11.08823000       1.00402000     -10.25955000
