6
Properties=species:S:1:pos:R:3 frame=T 54=T |=T Written=T by=T MDAnalysis=T XYZWriter=T (release=T 2.4.3)=T pbc="F F F"
H      -16.73622000       3.18292000      11.56289000
O      -16.33632000       4.03064000      11.36561000
H      -15.98291000       3.87946000      10.51245000
H      -18.64218000       6.70784000      10.93351000
O      -18.87499000       5.77405000      10.96643000
H      -18.08510000       5.40880000      11.31481000
