6
Properties=species:S:1:pos:R:3 frame=T 52=T |=T Written=T by=T MDAnalysis=T XYZWriter=T (release=T 2.4.3)=T pbc="F F F"
H       11.96977000     -19.12592000      16.02716000
O       12.38030000     -18.34485000      15.58498000
H       13.29353000     -18.31526000      15.89716000
H       10.68501000     -17.07877000      15.80661000
O       10.50391000     -16.16230000      15.60226000
H        9.53036000     -16.11641000      15.58179000
