6
Properties=species:S:1:pos:R:3 frame=T 4=T |=T Written=T by=T MDAnalysis=T XYZWriter=T (release=T 2.4.3)=T pbc="F F F"
H       11.35127000      -9.29222000     -13.06535000
O       11.25775000      -8.48144000     -13.57877000
H       12.15847000      -8.09951000     -13.55972000
H       12.57056000     -10.48684000     -14.03069000
O       12.69744000     -10.85317000     -13.12809000
H       12.07128000     -11.57625000     -13.01455000
