6
Properties=species:S:1:pos:R:3 frame=T 21=T |=T Written=T by=T MDAnalysis=T XYZWriter=T (release=T 2.4.3)=T pbc="F F F"
H      -12.48077000      10.52770000       4.28833000
O      -12.31422000      11.44330000       4.58622000
H      -12.14456000      11.34667000       5.52677000
H      -13.01318000       9.34964000       2.45300000
O      -12.25110000       8.94813000       2.89083000
H      -11.87320000       8.26018000       2.30964000
