6
Properties=species:S:1:pos:R:3 frame=T 19=T |=T Written=T by=T MDAnalysis=T XYZWriter=T (release=T 2.4.3)=T pbc="F F F"
H       16.52769000       4.61212000      -2.86581000
O       17.01126000       4.21742000      -2.11535000
H       17.20857000       4.97189000      -1.55803000
H       18.07332000       6.26252000      -0.46340000
O       17.13932000       6.14766000      -0.33568000
H       16.80307000       6.83484000      -0.93167000
