6
Properties=species:S:1:pos:R:3 frame=T 20=T |=T Written=T by=T MDAnalysis=T XYZWriter=T (release=T 2.4.3)=T pbc="F F F"
H       11.35988000      12.54600000     -15.86725000
O       11.69352000      11.76098000     -16.29687000
H       10.86873000      11.25356000     -16.39148000
H       10.91699000      12.69360000     -13.36266000
O       10.23477000      12.84022000     -14.02205000
H        9.99489000      11.95145000     -14.31760000
