6
Properties=species:S:1:pos:R:3 frame=T 15=T |=T Written=T by=T MDAnalysis=T XYZWriter=T (release=T 2.4.3)=T pbc="F F F"
H       -1.77895000       0.07638000      11.31774000
O       -0.83490000      -0.15615000      11.37551000
H       -0.81462000      -0.95838000      11.91897000
H       -0.37727000      -3.15509000      11.91920000
O       -0.91694000      -2.55814000      12.47873000
H       -1.72749000      -2.51102000      11.93772000
