6
Properties=species:S:1:pos:R:3 frame=T 7=T |=T Written=T by=T MDAnalysis=T XYZWriter=T (release=T 2.4.3)=T pbc="F F F"
H        8.03132000      -0.12540000       6.63575000
O        8.21930000      -0.48021000       5.76168000
H        9.10719000      -0.84851000       5.83266000
H        7.00485000       1.57445000       8.43867000
O        7.47124000       0.73287000       8.28051000
H        7.33323000       0.38531000       9.17229000
