6
Properties=species:S:1:pos:R:3 frame=T 49=T |=T Written=T by=T MDAnalysis=T XYZWriter=T (release=T 2.4.3)=T pbc="F F F"
H        2.60825000     -17.37155000      -8.92372000
O        2.18224000     -17.24629000      -9.80205000
H        1.96902000     -18.14923000     -10.05474000
H        4.33048000     -17.75124000     -11.31898000
O        4.56860000     -18.69205000     -11.17342000
H        3.76769000     -19.17328000     -11.45864000
