6
Properties=species:S:1:pos:R:3 frame=T 41=T |=T Written=T by=T MDAnalysis=T XYZWriter=T (release=T 2.4.3)=T pbc="F F F"
H       12.65466000       0.69338000      -6.27850000
O       13.51995000       1.00126000      -6.00132000
H       13.90539000       0.27619000      -5.48498000
H       13.59358000      -1.99329000      -4.01384000
O       13.78550000      -1.16207000      -4.45255000
H       12.90875000      -0.81912000      -4.60447000
