6
Properties=species:S:1:pos:R:3 frame=T 0=T |=T Written=T by=T MDAnalysis=T XYZWriter=T (release=T 2.4.3)=T pbc="F F F"
H       -7.48468000      -9.77666000      -3.33035000
O       -7.23845000      -8.91834000      -2.93810000
H       -6.45927000      -8.70979000      -3.46942000
H       -8.04264000      -7.97803000      -4.65174000
O       -8.60017000      -8.08790000      -5.42592000
H       -9.18489000      -8.80811000      -5.19656000
