6
Properties=species:S:1:pos:R:3 frame=T 21=T |=T Written=T by=T MDAnalysis=T XYZWriter=T (release=T 2.4.3)=T pbc="F F F"
H       12.68955000       7.77600000      -6.65434000
O       12.09542000       8.30184000      -6.09217000
H       12.46437000       8.21323000      -5.19104000
H       15.11019000       8.05418000      -6.46757000
O       14.69931000       7.80891000      -7.30857000
H       14.24381000       8.55628000      -7.65724000
