6
Properties=species:S:1:pos:R:3 frame=T 27=T |=T Written=T by=T MDAnalysis=T XYZWriter=T (release=T 2.4.3)=T pbc="F F F"
H      -10.65733000     -15.69633000      -6.18785000
O      -11.29465000     -15.00476000      -6.39200000
H      -11.60740000     -15.28170000      -7.27137000
H      -13.46776000     -14.44432000      -6.75627000
O      -13.83984000     -13.68608000      -6.26141000
H      -14.76292000     -13.60233000      -6.54958000
