6
Properties=species:S:1:pos:R:3 frame=T 37=T |=T Written=T by=T MDAnalysis=T XYZWriter=T (release=T 2.4.3)=T pbc="F F F"
H      -13.97041000     -17.98535000      14.71956000
O      -14.33858000     -18.80471000      15.03735000
H      -14.80268000     -19.15026000      14.26663000
H      -17.26873000     -18.15879000      15.74250000
O      -16.85943000     -17.78454000      14.95970000
H      -15.91161000     -18.00156000      15.12807000
