6
Properties=species:S:1:pos:R:3 frame=T 50=T |=T Written=T by=T MDAnalysis=T XYZWriter=T (release=T 2.4.3)=T pbc="F F F"
H       -1.64539000       7.16409000       4.89225000
O       -2.33562000       7.22647000       5.55727000
H       -3.05058000       7.76541000       5.24295000
H       -0.80772000       7.83540000       3.49349000
O       -0.07126000       7.31208000       3.87586000
H       -0.34027000       6.40777000       3.61344000
