6
Properties=species:S:1:pos:R:3 frame=T 11=T |=T Written=T by=T MDAnalysis=T XYZWriter=T (release=T 2.4.3)=T pbc="F F F"
H       18.17002000      -6.64749000      13.21194000
O       18.58057000      -6.12050000      13.87786000
H       17.87241000      -5.53524000      14.21408000
H       16.75585000      -8.52838000      14.15005000
O       16.90429000      -8.44830000      15.08436000
H       17.04539000      -7.51934000      15.18200000
