6
Properties=species:S:1:pos:R:3 frame=T 18=T |=T Written=T by=T MDAnalysis=T XYZWriter=T (release=T 2.4.3)=T pbc="F F F"
H       12.86061000      17.78820000      -6.13387000
O       12.27695000      17.02119000      -6.31004000
H       11.67112000      17.05843000      -5.56945000
H       11.08453000      17.70211000      -8.00228000
O       10.19084000      18.12313000      -7.98569000
H        9.92471000      18.06264000      -7.06665000
