6
Properties=species:S:1:pos:R:3 frame=T 36=T |=T Written=T by=T MDAnalysis=T XYZWriter=T (release=T 2.4.3)=T pbc="F F F"
H       -9.76234000       1.14933000      11.75844000
O       -9.06391000       0.56555000      12.08487000
H       -8.82649000       0.16856000      11.26481000
H       -8.90562000       1.41085000      13.96684000
O       -9.17207000       1.73514000      14.83440000
H       -8.78809000       1.10108000      15.41877000
