6
Properties=species:S:1:pos:R:3 frame=T 51=T |=T Written=T by=T MDAnalysis=T XYZWriter=T (release=T 2.4.3)=T pbc="F F F"
H      -18.23364000     -10.91946000      -7.32583000
O      -17.61203000     -11.22584000      -7.95804000
H      -16.97798000     -10.46382000      -8.05051000
H      -16.16372000     -12.97738000      -9.20039000
O      -15.57206000     -13.43128000      -8.60122000
H      -15.27201000     -14.18620000      -9.13241000
