6
Properties=species:S:1:pos:R:3 frame=T 6=T |=T Written=T by=T MDAnalysis=T XYZWriter=T (release=T 2.4.3)=T pbc="F F F"
H        8.71942000      18.28216000      14.53139000
O        8.17325000      18.97279000      14.14137000
H        8.64741000      19.15898000      13.30866000
H        5.69095000      17.84964000      14.28536000
O        5.55565000      16.89957000      14.21417000
H        5.63584000      16.68821000      13.27125000
