6
Properties=species:S:1:pos:R:3 frame=T 13=T |=T Written=T by=T MDAnalysis=T XYZWriter=T (release=T 2.4.3)=T pbc="F F F"
H       11.34265000      15.84689000      -9.17005000
O       10.70898000      15.12784000      -9.25071000
H       10.98333000      14.50614000      -8.56403000
H       13.31174000      14.43122000      -9.98343000
O       12.69428000      14.15597000     -10.67870000
H       11.83606000      14.45430000     -10.32315000
