6
Properties=species:S:1:pos:R:3 frame=T 28=T |=T Written=T by=T MDAnalysis=T XYZWriter=T (release=T 2.4.3)=T pbc="F F F"
H      -16.08705000       5.56456000      -9.22917000
O      -15.30372000       5.30104000      -9.69914000
H      -15.29302000       4.37300000      -9.62218000
H      -15.21076000       1.84764000     -10.95997000
O      -15.86439000       2.21561000     -10.37552000
H      -16.50845000       1.53821000     -10.25830000
