6
Properties=species:S:1:pos:R:3 frame=T 3=T |=T Written=T by=T MDAnalysis=T XYZWriter=T (release=T 2.4.3)=T pbc="F F F"
H      -11.74668000       2.43382000      11.65229000
O      -12.38139000       3.15462000      11.73689000
H      -11.88743000       3.89119000      12.16546000
H      -12.39830000       2.31216000      13.36039000
O      -11.86388000       2.13828000      14.15690000
H      -10.96773000       1.99144000      13.85604000
