6
Properties=species:S:1:pos:R:3 frame=T 46=T |=T Written=T by=T MDAnalysis=T XYZWriter=T (release=T 2.4.3)=T pbc="F F F"
H       -0.96792000     -16.01700000       6.82017000
O       -0.56273000     -16.32973000       7.64494000
H       -1.27481000     -16.25294000       8.30761000
H       -1.29597000     -14.45096000       7.63459000
O       -1.98895000     -13.82636000       7.85926000
H       -2.71870000     -14.38862000       8.07885000
