6
Properties=species:S:1:pos:R:3 frame=T 19=T |=T Written=T by=T MDAnalysis=T XYZWriter=T (release=T 2.4.3)=T pbc="F F F"
H      -12.31847000       9.07346000      -6.54426000
O      -12.85515000       8.79499000      -7.33061000
H      -13.59488000       9.39991000      -7.39140000
H      -12.54280000       6.81850000      -7.78673000
O      -12.41767000       5.98318000      -8.20827000
H      -11.67583000       5.60021000      -7.73021000
