6
Properties=species:S:1:pos:R:3 frame=T 19=T |=T Written=T by=T MDAnalysis=T XYZWriter=T (release=T 2.4.3)=T pbc="F F F"
H       15.20983000     -17.27133000      17.56173000
O       16.17363000     -17.18701000      17.54652000
H       16.44346000     -16.99920000      16.64232000
H       18.42035000     -17.41832000      18.28599000
O       18.63636000     -17.28696000      19.24066000
H       17.89546000     -17.79432000      19.63637000
