6
Properties=species:S:1:pos:R:3 frame=T 18=T |=T Written=T by=T MDAnalysis=T XYZWriter=T (release=T 2.4.3)=T pbc="F F F"
H       17.10352000       5.64561000      12.26605000
O       16.80452000       6.41585000      11.77305000
H       15.83838000       6.33937000      11.81866000
H       17.84860000       7.38892000       8.51845000
O       17.57323000       6.60720000       9.00446000
H       17.76356000       6.83214000       9.93916000
