6
Properties=species:S:1:pos:R:3 frame=T 45=T |=T Written=T by=T MDAnalysis=T XYZWriter=T (release=T 2.4.3)=T pbc="F F F"
H        7.95248000      -8.82815000      -2.14880000
O        7.07441000      -8.51068000      -2.37004000
H        7.12869000      -8.26877000      -3.29511000
H        7.72785000      -6.19323000      -0.84816000
O        6.99565000      -6.75057000      -0.57475000
H        6.90083000      -7.44042000      -1.28597000
