6
Properties=species:S:1:pos:R:3 frame=T 28=T |=T Written=T by=T MDAnalysis=T XYZWriter=T (release=T 2.4.3)=T pbc="F F F"
H      -10.78356000     -13.76789000       5.71840000
O      -10.68293000     -13.90483000       4.75023000
H      -11.54273000     -13.70803000       4.36788000
H      -12.82484000     -15.63604000       2.61550000
O      -12.75776000     -14.81748000       3.13678000
H      -13.35625000     -14.18849000       2.68296000
