6
Properties=species:S:1:pos:R:3 frame=T 46=T |=T Written=T by=T MDAnalysis=T XYZWriter=T (release=T 2.4.3)=T pbc="F F F"
H       -2.43015000     -14.67380000      16.64534000
O       -1.57325000     -14.26250000      16.55547000
H       -0.98137000     -14.85236000      17.07816000
H        1.43260000     -15.45047000      14.84788000
O        0.61858000     -15.31419000      14.31912000
H       -0.05595000     -15.22870000      14.99703000
