6
Properties=species:S:1:pos:R:3 frame=T 54=T |=T Written=T by=T MDAnalysis=T XYZWriter=T (release=T 2.4.3)=T pbc="F F F"
H       14.71176000      -2.48135000      13.11409000
O       15.34281000      -2.60075000      13.82064000
H       16.12893000      -2.21365000      13.39772000
H       17.85872000      -1.14410000      12.70714000
O       17.35146000      -0.87721000      11.93502000
H       18.07753000      -0.64901000      11.30796000
