6
Properties=species:S:1:pos:R:3 frame=T 32=T |=T Written=T by=T MDAnalysis=T XYZWriter=T (release=T 2.4.3)=T pbc="F F F"
H       -8.12451000     -13.88181000       8.74998000
O       -8.99889000     -14.21960000       8.48898000
H       -9.57537000     -13.54912000       8.85138000
H       -8.71560000     -12.98250000       7.21924000
O       -8.81280000     -12.37986000       6.47364000
H       -8.25125000     -12.85516000       5.85097000
