6
Properties=species:S:1:pos:R:3 frame=T 7=T |=T Written=T by=T MDAnalysis=T XYZWriter=T (release=T 2.4.3)=T pbc="F F F"
H       -1.17027000      -0.98583000      14.93666000
O       -1.71679000      -1.62227000      15.31927000
H       -1.19454000      -1.99255000      16.02312000
H        0.48742000      -2.11619000      17.17427000
O       -0.10044000      -2.82017000      16.88538000
H        0.42135000      -3.34119000      16.26211000
