6
Properties=species:S:1:pos:R:3 frame=T 53=T |=T Written=T by=T MDAnalysis=T XYZWriter=T (release=T 2.4.3)=T pbc="F F F"
H       14.45409000      15.33798000      16.88815000
O       14.40471000      16.21708000      16.46439000
H       14.74721000      16.00652000      15.58452000
H       14.70785000      13.36201000      17.31108000
O       15.12224000      12.87859000      16.58394000
H       15.92280000      13.37415000      16.37174000
