6
Properties=species:S:1:pos:R:3 frame=T 20=T |=T Written=T by=T MDAnalysis=T XYZWriter=T (release=T 2.4.3)=T pbc="F F F"
H      -16.80217000      12.31573000      -3.82350000
O      -16.25875000      12.99509000      -4.19197000
H      -16.84740000      13.74560000      -4.08722000
H      -18.30541000      10.85895000      -5.04965000
O      -18.63575000      11.67370000      -5.44322000
H      -19.01130000      11.37927000      -6.29443000
