6
Properties=species:S:1:pos:R:3 frame=T 6=T |=T Written=T by=T MDAnalysis=T XYZWriter=T (release=T 2.4.3)=T pbc="F F F"
H       -2.43377000      -3.44248000      -0.56150000
O       -2.78981000      -2.54065000      -0.57730000
H       -2.62249000      -2.19660000       0.31294000
H       -1.59503000      -0.81212000      -1.38393000
O       -0.82271000      -0.29077000      -1.61410000
H       -0.65112000      -0.46364000      -2.54688000
