6
Properties=species:S:1:pos:R:3 frame=T 45=T |=T Written=T by=T MDAnalysis=T XYZWriter=T (release=T 2.4.3)=T pbc="F F F"
H        9.80420000       2.88343000     -16.43060000
O        8.88899000       2.95634000     -16.70719000
H        8.41657000       2.40451000     -16.11243000
H        9.59485000       5.25487000     -16.06568000
O        9.18906000       6.07316000     -16.40336000
H        8.24432000       5.99852000     -16.26255000
