6
Properties=species:S:1:pos:R:3 frame=T 3=T |=T Written=T by=T MDAnalysis=T XYZWriter=T (release=T 2.4.3)=T pbc="F F F"
H       -1.08958000       0.70896000       4.87182000
O       -1.30125000       0.06815000       4.20814000
H       -1.82245000      -0.58043000       4.73990000
H       -0.22759000       0.66246000       2.04491000
O       -0.25424000       1.55692000       1.72003000
H       -0.71363000       2.03971000       2.40128000
