6
Properties=species:S:1:pos:R:3 frame=T 48=T |=T Written=T by=T MDAnalysis=T XYZWriter=T (release=T 2.4.3)=T pbc="F F F"
H       17.88020000     -11.84357000     -14.87886000
O       17.77567000     -11.51722000     -15.78033000
H       17.24621000     -10.70501000     -15.69921000
H       15.67386000      -9.29717000     -13.40112000
O       16.46145000      -9.51439000     -13.89865000
H       16.72173000      -8.64912000     -14.18535000
