6
Properties=species:S:1:pos:R:3 frame=T 19=T |=T Written=T by=T MDAnalysis=T XYZWriter=T (release=T 2.4.3)=T pbc="F F F"
H      -16.95197000      15.43818000     -17.60802000
O      -17.13955000      14.83500000     -16.89436000
H      -18.09932000      14.73960000     -17.02793000
H      -18.68463000      17.85453000     -16.49110000
O      -18.58360000      17.69812000     -17.43546000
H      -17.63840000      17.69992000     -17.57737000
