6
Properties=species:S:1:pos:R:3 frame=T 49=T |=T Written=T by=T MDAnalysis=T XYZWriter=T (release=T 2.4.3)=T pbc="F F F"
H        5.86250000     -17.19222000      -4.98094000
O        6.16436000     -16.68227000      -5.74762000
H        6.11595000     -15.75241000      -5.46276000
H        4.78250000     -14.71036000      -4.10523000
O        5.28758000     -14.28961000      -4.83504000
H        4.64303000     -14.27525000      -5.57313000
