6
Properties=species:S:1:pos:R:3 frame=T 47=T |=T Written=T by=T MDAnalysis=T XYZWriter=T (release=T 2.4.3)=T pbc="F F F"
H       -7.99424000     -18.53033000     -12.38741000
O       -8.70953000     -18.62466000     -11.74892000
H       -8.28992000     -18.18171000     -10.97686000
H       -6.56103000     -18.52392000      -9.93890000
O       -7.19191000     -18.02601000      -9.42256000
H       -7.03669000     -17.11586000      -9.67128000
