6
Properties=species:S:1:pos:R:3 frame=T 17=T |=T Written=T by=T MDAnalysis=T XYZWriter=T (release=T 2.4.3)=T pbc="F F F"
H      -13.31735000     -13.23868000       8.29872000
O      -13.28353000     -13.23964000       9.26814000
H      -12.37743000     -13.51707000       9.42240000
H      -15.59505000     -12.27978000      11.48437000
O      -15.25202000     -11.67062000      10.81787000
H      -14.57420000     -12.22829000      10.39524000
