6
Properties=species:S:1:pos:R:3 frame=T 0=T |=T Written=T by=T MDAnalysis=T XYZWriter=T (release=T 2.4.3)=T pbc="F F F"
H      -11.32598000       2.39885000      17.72931000
O      -12.21107000       2.42329000      17.35148000
H      -12.48535000       1.52439000      17.20077000
H      -14.99287000       4.40740000      16.98420000
O      -14.03195000       4.42349000      17.05105000
H      -13.88208000       3.70303000      17.66523000
