6
Properties=species:S:1:pos:R:3 frame=T 24=T |=T Written=T by=T MDAnalysis=T XYZWriter=T (release=T 2.4.3)=T pbc="F F F"
H       -1.79689000      17.48293000      12.47863000
O       -2.11575000      18.38137000      12.72941000
H       -3.03828000      18.46279000      12.40631000
H       -0.98780000      17.93473000      10.26693000
O       -0.54063000      17.06442000      10.26836000
H       -0.21057000      16.91615000       9.39189000
