6
Properties=species:S:1:pos:R:3 frame=T 27=T |=T Written=T by=T MDAnalysis=T XYZWriter=T (release=T 2.4.3)=T pbc="F F F"
H        2.71877000      -9.29530000     -10.60148000
O        2.52181000      -8.60660000      -9.94959000
H        1.92995000      -9.02760000      -9.29486000
H        1.49155000     -10.88994000     -11.62057000
O        2.47912000     -10.83130000     -11.57353000
H        2.76737000     -11.46992000     -10.89450000
