6
Properties=species:S:1:pos:R:3 frame=T 21=T |=T Written=T by=T MDAnalysis=T XYZWriter=T (release=T 2.4.3)=T pbc="F F F"
H      -16.66388000      -5.62535000      -0.49642000
O      -17.22626000      -4.93779000      -0.10243000
H      -18.09426000      -5.41763000      -0.07198000
H      -15.06731000      -5.49874000       2.04269000
O      -15.72342000      -6.10789000       1.63485000
H      -16.23942000      -5.50309000       1.09704000
