6
Properties=species:S:1:pos:R:3 frame=T 43=T |=T Written=T by=T MDAnalysis=T XYZWriter=T (release=T 2.4.3)=T pbc="F F F"
H        4.80291000     -14.24939000      -6.99460000
O        5.30123000     -14.62523000      -7.73031000
H        5.02389000     -15.55303000      -7.74966000
H        2.59977000     -15.30020000      -6.02962000
O        2.82819000     -14.65185000      -5.35788000
H        3.21249000     -13.95808000      -5.86637000
