6
Properties=species:S:1:pos:R:3 frame=T 23=T |=T Written=T by=T MDAnalysis=T XYZWriter=T (release=T 2.4.3)=T pbc="F F F"
H      -19.25258000      15.37949000     -15.44889000
O      -18.62602000      15.31107000     -14.69957000
H      -18.40255000      16.23162000     -14.45860000
H      -16.96774000      12.82642000     -16.46848000
O      -16.65520000      13.76984000     -16.37183000
H      -16.93114000      14.04224000     -15.48819000
