6
Properties=species:S:1:pos:R:3 frame=T 20=T |=T Written=T by=T MDAnalysis=T XYZWriter=T (release=T 2.4.3)=T pbc="F F F"
H      -13.99560000      17.98092000     -12.39675000
O      -13.38056000      18.66493000     -12.66152000
H      -13.75996000      19.02112000     -13.48192000
H      -11.97738000      16.41823000     -10.10261000
O      -12.07320000      16.46706000     -11.05793000
H      -12.87722000      16.93594000     -11.20463000
