6
Properties=species:S:1:pos:R:3 frame=T 35=T |=T Written=T by=T MDAnalysis=T XYZWriter=T (release=T 2.4.3)=T pbc="F F F"
H       16.84589000      -9.28476000      12.10977000
O       17.44389000      -8.53149000      12.04978000
H       16.85908000      -7.82713000      12.34845000
H       15.80440000      -6.53695000      13.05602000
O       16.63480000      -6.13114000      12.74458000
H       16.45306000      -5.99423000      11.81528000
