6
Properties=species:S:1:pos:R:3 frame=T 52=T |=T Written=T by=T MDAnalysis=T XYZWriter=T (release=T 2.4.3)=T pbc="F F F"
H      -14.64361000      13.25429000      -5.46765000
O      -15.32227000      13.54968000      -6.10631000
H      -14.79200000      13.54524000      -6.95344000
H      -13.82585000      12.58015000      -8.45717000
O      -13.52766000      13.46579000      -8.17917000
H      -12.75856000      13.25760000      -7.65620000
