6
Properties=species:S:1:pos:R:3 frame=T 42=T |=T Written=T by=T MDAnalysis=T XYZWriter=T (release=T 2.4.3)=T pbc="F F F"
H      -11.26784000      14.40374000      -7.12323000
O      -11.58490000      14.33670000      -8.03940000
H      -12.23917000      15.03719000      -8.15743000
H      -13.71961000      16.38317000      -6.74825000
O      -13.28022000      16.98827000      -7.37746000
H      -13.76984000      17.80614000      -7.39759000
