6
Properties=species:S:1:pos:R:3 frame=T 31=T |=T Written=T by=T MDAnalysis=T XYZWriter=T (release=T 2.4.3)=T pbc="F F F"
H       -0.13696000     -15.87530000      -4.17271000
O        0.13584000     -16.06779000      -3.27400000
H       -0.72202000     -16.05714000      -2.85704000
H       -0.37358000     -17.83861000      -3.47903000
O       -0.75782000     -18.55768000      -2.91425000
H       -1.59777000     -18.75106000      -3.36576000
