6
Properties=species:S:1:pos:R:3 frame=T 14=T |=T Written=T by=T MDAnalysis=T XYZWriter=T (release=T 2.4.3)=T pbc="F F F"
H       14.64001000      15.22143000       8.55713000
O       15.07751000      15.04073000       7.69452000
H       15.77372000      15.71348000       7.63181000
H       13.62655000      15.65444000       7.14855000
O       12.70874000      15.74831000       6.83463000
H       12.43469000      14.81781000       6.85989000
