6
Properties=species:S:1:pos:R:3 frame=T 19=T |=T Written=T by=T MDAnalysis=T XYZWriter=T (release=T 2.4.3)=T pbc="F F F"
H       19.19596000       8.28889000     -10.56810000
O       19.21765000       7.35977000     -10.89162000
H       18.52205000       7.33135000     -11.53623000
H       17.95767000       8.99031000      -8.50379000
O       17.94622000       9.91974000      -8.69648000
H       18.54539000      10.03119000      -9.46812000
