6
Properties=species:S:1:pos:R:3 frame=T 53=T |=T Written=T by=T MDAnalysis=T XYZWriter=T (release=T 2.4.3)=T pbc="F F F"
H       -4.54607000     -11.70296000     -10.78376000
O       -4.72385000     -10.93935000     -11.32752000
H       -3.88150000     -10.50159000     -11.44215000
H       -6.78956000     -10.08758000     -11.58147000
O       -7.23813000      -9.71433000     -12.33266000
H       -6.77778000     -10.10099000     -13.08553000
