6
Properties=species:S:1:pos:R:3 frame=T 46=T |=T Written=T by=T MDAnalysis=T XYZWriter=T (release=T 2.4.3)=T pbc="F F F"
H      -12.38647000      -1.88002000      -2.63213000
O      -12.58766000      -2.74209000      -2.23836000
H      -12.68989000      -2.50139000      -1.30822000
H      -14.59591000      -5.55033000      -2.49589000
O      -13.79482000      -5.16250000      -2.92941000
H      -13.28159000      -4.70293000      -2.25309000
