6
Properties=species:S:1:pos:R:3 frame=T 38=T |=T Written=T by=T MDAnalysis=T XYZWriter=T (release=T 2.4.3)=T pbc="F F F"
H       19.34085000      -4.04881000     -12.74345000
O       19.28513000      -4.81498000     -13.35533000
H       18.35487000      -4.91126000     -13.60187000
H       17.93697000      -4.02507000     -11.10751000
O       18.04974000      -4.70235000     -10.42578000
H       17.49149000      -5.43224000     -10.67212000
