6
Properties=species:S:1:pos:R:3 frame=T 51=T |=T Written=T by=T MDAnalysis=T XYZWriter=T (release=T 2.4.3)=T pbc="F F F"
H      -18.38191000       5.81148000       8.17987000
O      -18.55560000       5.33866000       7.31933000
H      -18.79027000       4.43394000       7.57380000
H      -17.46462000       9.47134000       7.49409000
O      -18.08440000       8.71585000       7.49927000
H      -17.54516000       7.99400000       7.07867000
