6
Properties=species:S:1:pos:R:3 frame=T 37=T |=T Written=T by=T MDAnalysis=T XYZWriter=T (release=T 2.4.3)=T pbc="F F F"
H       10.44604000      15.42103000       5.89528000
O       10.24145000      15.03049000       6.75224000
H        9.34351000      15.33993000       6.88752000
H       11.15584000      15.59540000       4.49870000
O       10.27800000      15.85165000       4.19876000
H        9.82935000      15.01113000       4.40592000
