6
Properties=species:S:1:pos:R:3 frame=T 23=T |=T Written=T by=T MDAnalysis=T XYZWriter=T (release=T 2.4.3)=T pbc="F F F"
H       15.37748000       4.70756000      17.27330000
O       15.69131000       3.81931000      17.32463000
H       15.16874000       3.47476000      18.06793000
H       15.24640000       5.47127000      14.07879000
O       15.72721000       5.81202000      14.82890000
H       16.06581000       5.02948000      15.24466000
