6
Properties=species:S:1:pos:R:3 frame=T 27=T |=T Written=T by=T MDAnalysis=T XYZWriter=T (release=T 2.4.3)=T pbc="F F F"
H      -16.46285000      -8.29172000     -12.14044000
O      -16.50199000      -9.27486000     -12.04500000
H      -16.14583000      -9.42584000     -11.18301000
H      -18.10143000     -10.04831000     -11.62763000
O      -18.84740000     -10.14995000     -11.07015000
H      -18.61093000      -9.70881000     -10.23754000
