6
Properties=species:S:1:pos:R:3 frame=T 40=T |=T Written=T by=T MDAnalysis=T XYZWriter=T (release=T 2.4.3)=T pbc="F F F"
H      -12.49681000       7.03770000     -10.05620000
O      -12.50778000       6.99634000      -9.07565000
H      -11.61415000       6.72664000      -8.83942000
H      -10.90076000       6.76051000     -12.27742000
O      -11.82768000       6.59953000     -12.00515000
H      -12.12801000       5.96453000     -12.66766000
