6
Properties=species:S:1:pos:R:3 frame=T 5=T |=T Written=T by=T MDAnalysis=T XYZWriter=T (release=T 2.4.3)=T pbc="F F F"
H       -2.92039000      -0.92636000       8.16549000
O       -2.26167000      -0.61199000       8.81044000
H       -2.76652000       0.02890000       9.34512000
H       -0.69245000      -3.17642000      10.72376000
O       -1.51419000      -3.21451000      10.22010000
H       -1.52197000      -2.35850000       9.76700000
