6
Properties=species:S:1:pos:R:3 frame=T 44=T |=T Written=T by=T MDAnalysis=T XYZWriter=T (release=T 2.4.3)=T pbc="F F F"
H      -14.55833000      17.06489000      -6.94951000
O      -14.26265000      16.16572000      -7.20536000
H      -15.11649000      15.74578000      -7.34032000
H      -16.90087000      15.63186000      -6.51359000
O      -16.56799000      14.97061000      -7.14607000
H      -17.09078000      15.15267000      -7.95815000
