6
Properties=species:S:1:pos:R:3 frame=T 9=T |=T Written=T by=T MDAnalysis=T XYZWriter=T (release=T 2.4.3)=T pbc="F F F"
H      -15.17200000     -19.34990000       7.12546000
O      -15.68956000     -19.10379000       7.89125000
H      -15.83601000     -18.17178000       7.82156000
H      -16.79885000     -16.49293000       9.80757000
O      -17.01856000     -17.24436000      10.40974000
H      -16.65286000     -18.05016000      10.02455000
