6
Properties=species:S:1:pos:R:3 frame=T 1=T |=T Written=T by=T MDAnalysis=T XYZWriter=T (release=T 2.4.3)=T pbc="F F F"
H       -2.66635000       8.49933000       0.57741000
O       -2.87971000       7.63581000       0.91259000
H       -2.29745000       7.10463000       0.34285000
H       -3.32004000      11.00374000      -0.57991000
O       -2.96098000      10.64569000       0.24442000
H       -2.00755000      10.80954000       0.13646000
