6
Properties=species:S:1:pos:R:3 frame=T 9=T |=T Written=T by=T MDAnalysis=T XYZWriter=T (release=T 2.4.3)=T pbc="F F F"
H       -0.02462000       5.12417000      -9.22175000
O       -0.95484000       5.25201000      -9.28851000
H       -1.35879000       4.42610000      -9.04460000
H        1.02889000       7.26076000     -10.89121000
O        1.55584000       6.45049000     -10.96829000
H        1.76993000       6.27279000     -10.02888000
