6
Properties=species:S:1:pos:R:3 frame=T 9=T |=T Written=T by=T MDAnalysis=T XYZWriter=T (release=T 2.4.3)=T pbc="F F F"
H      -14.64729000      -5.11823000      -2.44128000
O      -14.19029000      -4.49443000      -1.83012000
H      -14.51093000      -3.63961000      -2.13609000
H      -14.79756000      -3.27787000      -3.99896000
O      -15.54616000      -2.76535000      -3.66576000
H      -15.19439000      -1.87985000      -3.62753000
