6
Properties=species:S:1:pos:R:3 frame=T 37=T |=T Written=T by=T MDAnalysis=T XYZWriter=T (release=T 2.4.3)=T pbc="F F F"
H       17.34284000     -15.89858000       3.83699000
O       16.54975000     -15.81539000       3.31556000
H       15.86693000     -16.16348000       3.95009000
H       14.99056000     -16.05452000       6.61777000
O       15.85726000     -16.20719000       6.18239000
H       16.43327000     -16.37542000       6.95462000
