6
Properties=species:S:1:pos:R:3 frame=T 2=T |=T Written=T by=T MDAnalysis=T XYZWriter=T (release=T 2.4.3)=T pbc="F F F"
H       11.45078000      14.81250000      -9.78087000
O       11.96356000      15.25591000     -10.47913000
H       11.92818000      16.19067000     -10.23164000
H       12.42352000      17.92913000      -8.89547000
O       11.78165000      17.94552000      -9.61098000
H       11.06483000      17.41683000      -9.22347000
