6
Properties=species:S:1:pos:R:3 frame=T 21=T |=T Written=T by=T MDAnalysis=T XYZWriter=T (release=T 2.4.3)=T pbc="F F F"
H      -15.00030000      13.77813000      12.92950000
O      -15.18997000      12.85902000      13.13355000
H      -15.46000000      12.93119000      14.06130000
H      -13.81833000      12.73120000      14.30462000
O      -13.37866000      12.93727000      15.12967000
H      -12.60565000      12.36484000      15.15799000
