6
Properties=species:S:1:pos:R:3 frame=T 19=T |=T Written=T by=T MDAnalysis=T XYZWriter=T (release=T 2.4.3)=T pbc="F F F"
H        8.18736000      -7.12746000      -2.35295000
O        7.91553000      -7.16576000      -1.43591000
H        8.34653000      -7.96231000      -1.16211000
H        6.72768000      -8.14602000       0.18120000
O        6.86034000      -8.18826000       1.14077000
H        6.00995000      -8.55811000       1.47594000
