6
Properties=species:S:1:pos:R:3 frame=T 49=T |=T Written=T by=T MDAnalysis=T XYZWriter=T (release=T 2.4.3)=T pbc="F F F"
H        5.78075000      18.88348000     -17.21850000
O        5.95434000      18.23282000     -16.53654000
H        5.66595000      17.38434000     -16.95115000
H        4.88422000      16.66792000     -19.04987000
O        4.71015000      16.40497000     -18.12135000
H        3.87333000      16.83220000     -17.99408000
