6
Properties=species:S:1:pos:R:3 frame=T 43=T |=T Written=T by=T MDAnalysis=T XYZWriter=T (release=T 2.4.3)=T pbc="F F F"
H      -11.87070000     -13.28470000     -14.38070000
O      -11.92916000     -13.16765000     -15.37376000
H      -12.56345000     -12.45098000     -15.47529000
H      -13.81887000     -14.51797000     -12.99174000
O      -13.20848000     -14.44909000     -12.25431000
H      -12.42130000     -14.00610000     -12.63014000
