6
Properties=species:S:1:pos:R:3 frame=T 31=T |=T Written=T by=T MDAnalysis=T XYZWriter=T (release=T 2.4.3)=T pbc="F F F"
H      -17.49880000     -11.86110000      -4.57238000
O      -16.71540000     -11.97634000      -5.09346000
H      -16.57004000     -12.91673000      -5.12941000
H      -15.32348000     -10.42659000      -5.76286000
O      -14.88252000      -9.62291000      -5.50603000
H      -15.48995000      -9.21747000      -4.86844000
