6
Properties=species:S:1:pos:R:3 frame=T 6=T |=T Written=T by=T MDAnalysis=T XYZWriter=T (release=T 2.4.3)=T pbc="F F F"
H       -9.62485000     -11.49305000     -17.45502000
O       -9.78666000     -12.41986000     -17.63479000
H       -8.92030000     -12.75138000     -17.88915000
H      -11.40372000     -13.33897000     -16.90298000
O      -12.19587000     -13.71000000     -17.31375000
H      -12.53529000     -14.18721000     -16.54879000
