6
Properties=species:S:1:pos:R:3 frame=T 26=T |=T Written=T by=T MDAnalysis=T XYZWriter=T (release=T 2.4.3)=T pbc="F F F"
H       -2.77528000     -10.78305000       4.56188000
O       -2.95378000     -10.07823000       3.91207000
H       -3.67163000     -10.41315000       3.40654000
H       -1.02319000      -9.35577000       3.85370000
O       -0.11548000      -9.18085000       3.54195000
H        0.17894000      -8.39340000       4.06157000
