6
Properties=species:S:1:pos:R:3 frame=T 48=T |=T Written=T by=T MDAnalysis=T XYZWriter=T (release=T 2.4.3)=T pbc="F F F"
H       -1.51485000      13.85299000      13.69276000
O       -2.30702000      13.69330000      13.17421000
H       -2.62616000      14.52805000      12.77889000
H       -3.30523000      12.74600000      14.51414000
O       -3.11694000      12.51796000      15.43455000
H       -2.72625000      13.29394000      15.86835000
