6
Properties=species:S:1:pos:R:3 frame=T 20=T |=T Written=T by=T MDAnalysis=T XYZWriter=T (release=T 2.4.3)=T pbc="F F F"
H       11.79661000     -15.72608000       5.76270000
O       11.59308000     -16.35674000       5.05720000
H       11.26208000     -17.14726000       5.51039000
H       12.40364000     -16.27869000       7.26804000
O       12.48442000     -15.34942000       7.52790000
H       13.39807000     -15.18694000       7.74844000
