6
Properties=species:S:1:pos:R:3 frame=T 31=T |=T Written=T by=T MDAnalysis=T XYZWriter=T (release=T 2.4.3)=T pbc="F F F"
H      -12.10453000      19.35977000      -9.73281000
O      -11.86572000      18.57867000      -9.23102000
H      -12.32578000      17.86855000      -9.68891000
H      -13.38687000      18.66754000      -7.22768000
O      -12.67223000      18.89049000      -6.63043000
H      -11.86172000      18.70952000      -7.14146000
