6
Properties=species:S:1:pos:R:3 frame=T 20=T |=T Written=T by=T MDAnalysis=T XYZWriter=T (release=T 2.4.3)=T pbc="F F F"
H       13.19555000      10.49862000     -17.59169000
O       14.04567000      10.79007000     -17.91068000
H       14.39735000      10.01645000     -18.39281000
H       13.55126000       9.83275000     -14.98854000
O       12.59143000       9.94987000     -14.86874000
H       12.41327000      10.72707000     -15.40547000
