6
Properties=species:S:1:pos:R:3 frame=T 50=T |=T Written=T by=T MDAnalysis=T XYZWriter=T (release=T 2.4.3)=T pbc="F F F"
H        8.16241000      18.03293000       6.29549000
O        7.24520000      17.79018000       6.49624000
H        7.16385000      16.93011000       6.10161000
H        8.01679000      17.72684000       8.16003000
O        8.71116000      17.83593000       8.80241000
H        9.31767000      18.50366000       8.45946000
