6
Properties=species:S:1:pos:R:3 frame=T 36=T |=T Written=T by=T MDAnalysis=T XYZWriter=T (release=T 2.4.3)=T pbc="F F F"
H        3.02537000     -12.18451000      18.17897000
O        2.70068000     -12.30363000      19.07372000
H        1.76166000     -12.05347000      19.04959000
H        0.56245000     -13.37003000      17.26197000
O        0.42700000     -14.10169000      17.88027000
H       -0.06090000     -13.68469000      18.62344000
