6
Properties=species:S:1:pos:R:3 frame=T 48=T |=T Written=T by=T MDAnalysis=T XYZWriter=T (release=T 2.4.3)=T pbc="F F F"
H       -4.57378000      -5.59711000     -18.61349000
O       -4.27267000      -5.85046000     -17.73255000
H       -3.34200000      -5.55781000     -17.78671000
H       -0.54109000      -5.75266000     -17.99553000
O       -1.38977000      -6.21066000     -17.91548000
H       -1.16062000      -6.91012000     -17.27451000
