6
Properties=species:S:1:pos:R:3 frame=T 38=T |=T Written=T by=T MDAnalysis=T XYZWriter=T (release=T 2.4.3)=T pbc="F F F"
H        9.35825000      10.62183000     -14.43835000
O        8.80988000      10.89688000     -15.18953000
H        8.00210000      11.21427000     -14.79223000
H        7.49879000       9.41971000     -15.26204000
O        6.83486000       8.78112000     -14.94730000
H        7.18493000       8.54052000     -14.06943000
