6
Properties=species:S:1:pos:R:3 frame=T 30=T |=T Written=T by=T MDAnalysis=T XYZWriter=T (release=T 2.4.3)=T pbc="F F F"
H       -2.89338000       2.67476000      -9.17643000
O       -2.53256000       2.76294000      -8.29229000
H       -1.76780000       3.28412000      -8.43514000
H       -2.61494000      -0.19746000      -9.63894000
O       -1.73717000      -0.04913000     -10.00494000
H       -1.78239000       0.87914000     -10.23014000
