6
Properties=species:S:1:pos:R:3 frame=T 10=T |=T Written=T by=T MDAnalysis=T XYZWriter=T (release=T 2.4.3)=T pbc="F F F"
H        5.76120000     -12.72577000       6.32919000
O        5.80440000     -13.05492000       7.21589000
H        5.20063000     -12.48456000       7.71754000
H        3.69752000     -10.86245000       8.06170000
O        4.63172000     -10.98666000       8.23969000
H        5.06387000     -10.40870000       7.60118000
