6
Properties=species:S:1:pos:R:3 frame=T 19=T |=T Written=T by=T MDAnalysis=T XYZWriter=T (release=T 2.4.3)=T pbc="F F F"
H      -17.67645000       5.76949000       8.09038000
O      -16.94068000       5.84396000       8.68203000
H      -17.11376000       5.09527000       9.27605000
H      -17.44186000       2.43694000       9.09606000
O      -17.63847000       3.08065000       9.75852000
H      -18.04021000       2.60333000      10.47915000
