6
Properties=species:S:1:pos:R:3 frame=T 16=T |=T Written=T by=T MDAnalysis=T XYZWriter=T (release=T 2.4.3)=T pbc="F F F"
H       -3.59879000     -15.68677000     -14.45753000
O       -4.09539000     -15.78673000     -13.65314000
H       -4.88973000     -16.27421000     -13.95164000
H       -6.45107000     -15.73952000     -15.49690000
O       -6.18975000     -16.58873000     -15.06402000
H       -5.85850000     -17.16300000     -15.76726000
