6
Properties=species:S:1:pos:R:3 frame=T 24=T |=T Written=T by=T MDAnalysis=T XYZWriter=T (release=T 2.4.3)=T pbc="F F F"
H       -9.44933000       9.09833000      -5.15333000
O       -9.90603000       9.85546000      -4.76633000
H      -10.81983000       9.70299000      -4.99938000
H      -10.42535000      12.91683000      -3.27899000
O      -11.10361000      12.26157000      -3.33060000
H      -10.73888000      11.64874000      -3.97719000
