6
Properties=species:S:1:pos:R:3 frame=T 18=T |=T Written=T by=T MDAnalysis=T XYZWriter=T (release=T 2.4.3)=T pbc="F F F"
H        7.62652000      -9.11934000     -11.07701000
O        7.09777000      -9.08994000     -11.90719000
H        6.95204000     -10.00848000     -12.09420000
H        6.51021000     -12.72229000     -13.22273000
O        7.18217000     -12.16637000     -12.78173000
H        7.59681000     -11.75527000     -13.51859000
