6
Properties=species:S:1:pos:R:3 frame=T 36=T |=T Written=T by=T MDAnalysis=T XYZWriter=T (release=T 2.4.3)=T pbc="F F F"
H        0.29847000       6.66191000     -11.59803000
O       -0.49636000       7.00666000     -12.03521000
H       -0.59193000       7.85922000     -11.62104000
H        0.96362000       8.12064000     -12.77229000
O        1.69973000       8.64040000     -13.09421000
H        2.41813000       8.00667000     -13.01985000
