6
Properties=species:S:1:pos:R:3 frame=T 54=T |=T Written=T by=T MDAnalysis=T XYZWriter=T (release=T 2.4.3)=T pbc="F F F"
H        9.78570000       9.57039000     -15.32995000
O       10.74568000       9.39032000     -15.38453000
H       11.04587000       9.88497000     -14.61932000
H       12.60619000       9.29208000     -16.94233000
O       13.12158000       9.62223000     -17.69822000
H       12.85219000       9.11070000     -18.46367000
