6
Properties=species:S:1:pos:R:3 frame=T 41=T |=T Written=T by=T MDAnalysis=T XYZWriter=T (release=T 2.4.3)=T pbc="F F F"
H       18.43681000      15.01334000      -0.49645000
O       17.57036000      15.41394000      -0.39671000
H       17.32727000      14.90447000       0.40539000
H       16.19262000      15.62304000      -2.41437000
O       16.43689000      16.10360000      -3.18921000
H       16.02387000      15.61112000      -3.90026000
