6
Properties=species:S:1:pos:R:3 frame=T 3=T |=T Written=T by=T MDAnalysis=T XYZWriter=T (release=T 2.4.3)=T pbc="F F F"
H       16.31077000      18.18255000       2.65507000
O       16.27634000      17.91641000       3.58431000
H       16.37076000      16.95702000       3.54104000
H       18.47924000      17.89975000       0.73063000
O       18.99165000      17.35006000       1.32722000
H       18.66696000      16.46516000       1.11358000
