6
Properties=species:S:1:pos:R:3 frame=T 43=T |=T Written=T by=T MDAnalysis=T XYZWriter=T (release=T 2.4.3)=T pbc="F F F"
H        9.45252000     -11.51192000       3.62334000
O        9.96196000     -12.34272000       3.54861000
H       10.25025000     -12.27393000       2.62181000
H       12.30400000     -12.92382000       5.82463000
O       11.41979000     -13.35831000       5.87793000
H       11.12408000     -13.26523000       4.98380000
