6
Properties=species:S:1:pos:R:3 frame=T 24=T |=T Written=T by=T MDAnalysis=T XYZWriter=T (release=T 2.4.3)=T pbc="F F F"
H       -8.09282000     -16.13583000      11.00523000
O       -7.24072000     -16.52535000      11.10275000
H       -6.67449000     -15.78288000      11.38339000
H       -8.21076000     -14.12371000       9.30343000
O       -8.75496000     -14.41222000      10.07218000
H       -9.03509000     -15.30604000       9.78686000
