6
Properties=species:S:1:pos:R:3 frame=T 33=T |=T Written=T by=T MDAnalysis=T XYZWriter=T (release=T 2.4.3)=T pbc="F F F"
H      -16.89087000      17.32098000       4.61499000
O      -17.15006000      17.09317000       3.71543000
H      -17.46761000      17.89773000       3.32568000
H      -17.88079000      15.30384000       2.84027000
O      -18.17341000      14.40672000       2.85306000
H      -17.42681000      13.97008000       3.25496000
