6
Properties=species:S:1:pos:R:3 frame=T 32=T |=T Written=T by=T MDAnalysis=T XYZWriter=T (release=T 2.4.3)=T pbc="F F F"
H       -9.01059000      17.88074000      -0.71358000
O       -8.76762000      18.59936000      -0.15123000
H       -9.15351000      19.36588000      -0.55500000
H       -8.84379000      15.95936000      -2.75696000
O       -8.77090000      16.27419000      -1.84020000
H       -8.15748000      15.62346000      -1.48977000
