6
Properties=species:S:1:pos:R:3 frame=T 54=T |=T Written=T by=T MDAnalysis=T XYZWriter=T (release=T 2.4.3)=T pbc="F F F"
H       15.25414000       0.21251000      18.24835000
O       14.59864000      -0.13949000      17.60985000
H       14.31255000       0.64651000      17.17771000
H       15.62677000       2.13777000      19.17189000
O       15.44721000       3.04689000      18.84013000
H       16.33140000       3.40926000      18.84225000
