6
Properties=species:S:1:pos:R:3 frame=T 54=T |=T Written=T by=T MDAnalysis=T XYZWriter=T (release=T 2.4.3)=T pbc="F F F"
H      -18.35948000      -3.22338000       3.94391000
O      -17.97321000      -3.97770000       4.41437000
H      -18.38893000      -4.73892000       3.98461000
H      -17.79757000      -3.95811000       1.00058000
O      -18.63382000      -3.56138000       1.32533000
H      -19.02861000      -4.18484000       1.92489000
