6
Properties=species:S:1:pos:R:3 frame=T 6=T |=T Written=T by=T MDAnalysis=T XYZWriter=T (release=T 2.4.3)=T pbc="F F F"
H      -17.55549000       5.40701000       0.97693000
O      -17.59566000       6.33220000       0.68290000
H      -17.59381000       6.18929000      -0.27255000
H      -18.38215000       3.97358000       0.61435000
O      -18.14467000       3.75332000       1.51047000
H      -17.54929000       3.01871000       1.36805000
