6
Properties=species:S:1:pos:R:3 frame=T 47=T |=T Written=T by=T MDAnalysis=T XYZWriter=T (release=T 2.4.3)=T pbc="F F F"
H        3.98445000       5.96914000      -8.54957000
O        4.04578000       5.26686000      -7.84145000
H        4.15046000       5.77125000      -6.99274000
H        4.90962000       8.24974000      -7.29447000
O        4.89418000       7.80450000      -6.41438000
H        5.78514000       7.51501000      -6.24744000
