6
Properties=species:S:1:pos:R:3 frame=T 7=T |=T Written=T by=T MDAnalysis=T XYZWriter=T (release=T 2.4.3)=T pbc="F F F"
H       -7.37912000       2.76507000      -0.49912000
O       -6.78249000       3.26640000      -1.05395000
H       -5.95920000       3.30848000      -0.53087000
H       -5.48570000       3.98911000       1.61695000
O       -5.21578000       3.03512000       1.58067000
H       -5.94765000       2.55080000       2.04006000
