6
Properties=species:S:1:pos:R:3 frame=T 14=T |=T Written=T by=T MDAnalysis=T XYZWriter=T (release=T 2.4.3)=T pbc="F F F"
H       -9.60689000      17.44169000       4.05796000
O       -8.78757000      17.88892000       4.21894000
H       -8.89411000      18.81506000       3.92993000
H       -7.26473000      16.84087000       1.17936000
O       -6.74527000      17.17214000       1.90383000
H       -7.37403000      17.10982000       2.63677000
