6
Properties=species:S:1:pos:R:3 frame=T 32=T |=T Written=T by=T MDAnalysis=T XYZWriter=T (release=T 2.4.3)=T pbc="F F F"
H        7.65297000       6.64609000     -17.11071000
O        7.86956000       6.94656000     -18.00615000
H        8.76946000       6.63097000     -18.11377000
H        6.76427000       8.63485000     -17.05800000
O        6.14930000       9.23649000     -17.46532000
H        6.01795000       9.96536000     -16.82818000
