6
Properties=species:S:1:pos:R:3 frame=T 34=T |=T Written=T by=T MDAnalysis=T XYZWriter=T (release=T 2.4.3)=T pbc="F F F"
H      -12.45123000      -1.31393000     -17.89610000
O      -12.54644000      -0.61491000     -17.23183000
H      -12.21707000       0.21122000     -17.63109000
H       -9.83326000      -0.01856000     -16.14183000
O       -9.43276000       0.61026000     -16.75987000
H       -9.98598000       0.50401000     -17.53562000
