6
Properties=species:S:1:pos:R:3 frame=T 28=T |=T Written=T by=T MDAnalysis=T XYZWriter=T (release=T 2.4.3)=T pbc="F F F"
H      -11.82922000       9.79545000     -15.83257000
O      -12.07780000       9.33160000     -15.04585000
H      -12.82926000       9.83875000     -14.77613000
H      -15.73735000       9.70624000     -15.20704000
O      -15.28089000       9.81327000     -14.36035000
H      -14.90267000       8.93814000     -14.26038000
