6
Properties=species:S:1:pos:R:3 frame=T 29=T |=T Written=T by=T MDAnalysis=T XYZWriter=T (release=T 2.4.3)=T pbc="F F F"
H       11.10023000      -6.91406000      14.43245000
O       10.18336000      -7.02032000      14.14849000
H        9.70027000      -6.47965000      14.77625000
H       10.10317000      -6.71001000      12.23752000
O       10.27425000      -5.95175000      11.67761000
H       10.22877000      -5.21662000      12.24403000
