6
Properties=species:S:1:pos:R:3 frame=T 4=T |=T Written=T by=T MDAnalysis=T XYZWriter=T (release=T 2.4.3)=T pbc="F F F"
H      -15.42080000      -1.62829000      -7.84132000
O      -15.70853000      -2.47828000      -8.16081000
H      -16.06018000      -2.33129000      -9.05216000
H      -14.86943000      -4.14108000      -7.36223000
O      -14.39727000      -4.87753000      -7.74791000
H      -14.07067000      -5.34722000      -6.95918000
