6
Properties=species:S:1:pos:R:3 frame=T 21=T |=T Written=T by=T MDAnalysis=T XYZWriter=T (release=T 2.4.3)=T pbc="F F F"
H        7.24824000      -1.35268000      14.44232000
O        6.90741000      -0.68254000      15.04820000
H        6.88130000      -1.18634000      15.85677000
H        6.96793000      -3.24290000      16.97962000
O        6.99047000      -2.28278000      17.06517000
H        7.92147000      -2.13306000      17.15757000
