6
Properties=species:S:1:pos:R:3 frame=T 29=T |=T Written=T by=T MDAnalysis=T XYZWriter=T (release=T 2.4.3)=T pbc="F F F"
H      -10.53220000     -12.35923000      -2.38474000
O       -9.66200000     -12.01893000      -2.52699000
H       -9.10400000     -12.75464000      -2.74795000
H      -10.15128000     -12.09629000       0.03013000
O       -9.71830000     -11.26066000       0.24798000
H       -9.32057000     -11.03836000      -0.61684000
