6
Properties=species:S:1:pos:R:3 frame=T 30=T |=T Written=T by=T MDAnalysis=T XYZWriter=T (release=T 2.4.3)=T pbc="F F F"
H        1.62755000     -18.74334000       0.31702000
O        2.37405000     -18.74562000      -0.29689000
H        3.06710000     -18.96451000       0.32730000
H        2.59265000     -17.31857000      -1.13286000
O        2.13995000     -16.63860000      -1.63407000
H        1.23748000     -17.01348000      -1.72184000
