6
Properties=species:S:1:pos:R:3 frame=T 52=T |=T Written=T by=T MDAnalysis=T XYZWriter=T (release=T 2.4.3)=T pbc="F F F"
H      -18.08928000       2.88682000     -10.22336000
O      -18.84368000       3.26428000      -9.79040000
H      -18.70198000       4.22821000      -9.84309000
H      -18.14443000       6.87566000      -9.95492000
O      -18.71186000       6.26495000     -10.39441000
H      -18.58422000       6.41453000     -11.32210000
