6
Properties=species:S:1:pos:R:3 frame=T 34=T |=T Written=T by=T MDAnalysis=T XYZWriter=T (release=T 2.4.3)=T pbc="F F F"
H       -8.64630000       7.64448000     -13.94739000
O       -8.18843000       6.81070000     -13.67742000
H       -7.76625000       7.04701000     -12.83016000
H       -6.70121000       6.44743000     -14.62244000
O       -5.80326000       6.05438000     -14.58222000
H       -5.74963000       5.83766000     -13.63595000
