6
Properties=species:S:1:pos:R:3 frame=T 25=T |=T Written=T by=T MDAnalysis=T XYZWriter=T (release=T 2.4.3)=T pbc="F F F"
H       -4.84113000      10.99849000     -15.04159000
O       -5.08885000      10.86765000     -14.11617000
H       -4.86142000      11.70086000     -13.65981000
H       -2.10268000      11.76822000     -15.67933000
O       -2.95102000      11.40979000     -15.96877000
H       -2.70487000      11.01459000     -16.81725000
