6
Properties=species:S:1:pos:R:3 frame=T 8=T |=T Written=T by=T MDAnalysis=T XYZWriter=T (release=T 2.4.3)=T pbc="F F F"
H      -15.57841000      11.35807000     -10.08118000
O      -15.37584000      12.20807000      -9.69085000
H      -16.14534000      12.39392000      -9.14224000
H      -15.39478000      14.05658000     -10.21531000
O      -15.98503000      14.76368000     -10.45177000
H      -16.80188000      14.27913000     -10.47181000
