6
Properties=species:S:1:pos:R:3 frame=T 20=T |=T Written=T by=T MDAnalysis=T XYZWriter=T (release=T 2.4.3)=T pbc="F F F"
H       15.62102000     -12.56504000      -3.39901000
O       15.36755000     -13.47425000      -3.63581000
H       15.78567000     -13.96561000      -2.91239000
H       18.14033000     -12.30776000      -2.82994000
O       17.85383000     -11.39722000      -2.63701000
H       17.58335000     -11.13874000      -3.51676000
