6
Properties=species:S:1:pos:R:3 frame=T 30=T |=T Written=T by=T MDAnalysis=T XYZWriter=T (release=T 2.4.3)=T pbc="F F F"
H      -19.22081000     -14.27314000     -13.11760000
O      -19.20248000     -13.34858000     -12.89680000
H      -18.32924000     -13.30118000     -12.47786000
H      -16.88404000     -14.47269000     -12.50594000
O      -16.46326000     -13.60457000     -12.32582000
H      -16.17056000     -13.63805000     -11.43294000
