6
Properties=species:S:1:pos:R:3 frame=T 25=T |=T Written=T by=T MDAnalysis=T XYZWriter=T (release=T 2.4.3)=T pbc="F F F"
H        2.35485000       3.13649000       8.96921000
O        3.22859000       3.34558000       9.31294000
H        3.86529000       2.89230000       8.73727000
H        2.74456000       2.45640000       5.93595000
O        2.23129000       2.26614000       6.74563000
H        2.45829000       1.35312000       6.94749000
