6
Properties=species:S:1:pos:R:3 frame=T 10=T |=T Written=T by=T MDAnalysis=T XYZWriter=T (release=T 2.4.3)=T pbc="F F F"
H       -1.77730000      -3.95909000      11.24996000
O       -0.98485000      -3.42853000      11.14110000
H       -1.23951000      -2.60645000      11.54523000
H       -0.43009000      -5.42942000      10.41611000
O       -0.03137000      -5.76135000       9.59834000
H       -0.45151000      -6.59603000       9.42839000
