6
Properties=species:S:1:pos:R:3 frame=T 38=T |=T Written=T by=T MDAnalysis=T XYZWriter=T (release=T 2.4.3)=T pbc="F F F"
H        7.55833000     -10.51911000       1.83559000
O        6.89370000     -10.62996000       1.13871000
H        6.24121000     -11.23485000       1.53754000
H        4.61370000     -11.11092000       2.78035000
O        4.59853000     -10.60231000       3.62280000
H        4.93124000      -9.70159000       3.44677000
