6
Properties=species:S:1:pos:R:3 frame=T 29=T |=T Written=T by=T MDAnalysis=T XYZWriter=T (release=T 2.4.3)=T pbc="F F F"
H        2.67001000      -3.92340000      -6.95042000
O        2.64879000      -3.07559000      -6.49208000
H        2.94130000      -2.43746000      -7.13288000
H        5.56076000      -2.55298000      -6.70286000
O        5.54894000      -3.14541000      -5.92545000
H        4.59990000      -3.31271000      -5.86465000
