6
Properties=species:S:1:pos:R:3 frame=T 34=T |=T Written=T by=T MDAnalysis=T XYZWriter=T (release=T 2.4.3)=T pbc="F F F"
H      -17.40058000      -0.24055000       0.03785000
O      -17.65748000      -0.82459000       0.76073000
H      -16.82688000      -1.29552000       1.00054000
H      -15.69688000      -2.79844000       0.37278000
O      -15.60250000      -2.68525000       1.30696000
H      -15.06453000      -1.89542000       1.30716000
