6
Properties=species:S:1:pos:R:3 frame=T 12=T |=T Written=T by=T MDAnalysis=T XYZWriter=T (release=T 2.4.3)=T pbc="F F F"
H       -6.07067000      14.82408000       7.54420000
O       -5.51696000      15.49903000       7.09480000
H       -6.04201000      15.64708000       6.30480000
H       -8.50864000      15.85001000       5.72353000
O       -7.80672000      15.88348000       5.04861000
H       -7.39368000      15.00083000       5.20607000
