6
Properties=species:S:1:pos:R:3 frame=T 36=T |=T Written=T by=T MDAnalysis=T XYZWriter=T (release=T 2.4.3)=T pbc="F F F"
H      -18.55049000      -9.30163000      16.54285000
O      -18.98695000      -8.51321000      16.76914000
H      -19.02037000      -8.04102000      15.90660000
H      -17.15958000      -7.33758000      14.61995000
O      -17.14397000      -6.37811000      14.63904000
H      -18.09665000      -6.19337000      14.83785000
