6
Properties=species:S:1:pos:R:3 frame=T 52=T |=T Written=T by=T MDAnalysis=T XYZWriter=T (release=T 2.4.3)=T pbc="F F F"
H       -4.82034000      -2.07605000       8.58408000
O       -5.64576000      -1.58275000       8.70292000
H       -5.33940000      -0.85420000       9.25835000
H       -3.12221000      -3.06244000       9.71024000
O       -3.53066000      -3.18629000       8.84176000
H       -4.31522000      -3.75938000       9.05019000
