6
Properties=species:S:1:pos:R:3 frame=T 31=T |=T Written=T by=T MDAnalysis=T XYZWriter=T (release=T 2.4.3)=T pbc="F F F"
H       16.58271000      18.95609000       3.98077000
O       16.43044000      18.03779000       3.68655000
H       17.22991000      17.56539000       3.96469000
H       16.15561000      17.45510000       6.75489000
O       15.45810000      17.27153000       6.12398000
H       15.78424000      17.72093000       5.34774000
