6
Properties=species:S:1:pos:R:3 frame=T 19=T |=T Written=T by=T MDAnalysis=T XYZWriter=T (release=T 2.4.3)=T pbc="F F F"
H        6.47821000     -15.24345000     -19.07868000
O        5.89633000     -15.52080000     -18.38376000
H        6.44129000     -15.63408000     -17.60065000
H        6.08592000     -19.42474000     -18.92868000
O        5.12723000     -19.27040000     -18.84737000
H        4.99067000     -18.34585000     -19.14636000
