6
Properties=species:S:1:pos:R:3 frame=T 16=T |=T Written=T by=T MDAnalysis=T XYZWriter=T (release=T 2.4.3)=T pbc="F F F"
H       15.07627000      17.62268000       7.00213000
O       16.00160000      17.48077000       7.15895000
H       16.18844000      17.83227000       8.05640000
H       16.10381000      19.20307000       4.51114000
O       15.64662000      19.26082000       3.65057000
H       15.56822000      18.35716000       3.40188000
