6
Properties=species:S:1:pos:R:3 frame=T 39=T |=T Written=T by=T MDAnalysis=T XYZWriter=T (release=T 2.4.3)=T pbc="F F F"
H       -3.70002000      13.19491000     -18.53304000
O       -4.44135000      13.47425000     -17.99861000
H       -4.13372000      14.27207000     -17.55416000
H       -1.05902000      12.11515000     -17.71970000
O       -0.61860000      12.85098000     -17.31441000
H        0.26656000      12.48369000     -17.22110000
