6
Properties=species:S:1:pos:R:3 frame=T 31=T |=T Written=T by=T MDAnalysis=T XYZWriter=T (release=T 2.4.3)=T pbc="F F F"
H      -14.57925000      -8.76344000      -1.02366000
O      -14.04436000      -8.66682000      -1.82913000
H      -14.67611000      -8.92336000      -2.51387000
H      -15.60467000     -11.59165000      -2.30516000
O      -15.66403000     -12.49480000      -1.99865000
H      -16.40211000     -12.89074000      -2.47853000
