6
Properties=species:S:1:pos:R:3 frame=T 39=T |=T Written=T by=T MDAnalysis=T XYZWriter=T (release=T 2.4.3)=T pbc="F F F"
H       16.20891000     -10.64199000      -2.71996000
O       15.71332000     -10.11414000      -3.40418000
H       16.17724000     -10.29309000      -4.21670000
H       13.93368000      -8.64001000      -3.11586000
O       13.48180000      -8.11414000      -3.78596000
H       12.51102000      -8.21168000      -3.57161000
