6
Properties=species:S:1:pos:R:3 frame=T 30=T |=T Written=T by=T MDAnalysis=T XYZWriter=T (release=T 2.4.3)=T pbc="F F F"
H        1.84073000      -4.24778000      -9.03919000
O        1.22498000      -4.37386000      -8.27718000
H        1.50120000      -5.25533000      -7.95754000
H       -0.73275000      -3.09169000      -9.14545000
O       -0.84679000      -2.78370000     -10.08617000
H       -1.06890000      -1.83159000      -9.98041000
