6
Properties=species:S:1:pos:R:3 frame=T 27=T |=T Written=T by=T MDAnalysis=T XYZWriter=T (release=T 2.4.3)=T pbc="F F F"
H      -17.68986000      13.61035000       0.96954000
O      -17.74845000      12.65661000       1.10745000
H      -16.92702000      12.44890000       1.56424000
H      -15.05444000      11.20534000      -0.69402000
O      -14.65443000      11.71670000       0.03414000
H      -14.49075000      11.08269000       0.74229000
