6
Properties=species:S:1:pos:R:3 frame=T 2=T |=T Written=T by=T MDAnalysis=T XYZWriter=T (release=T 2.4.3)=T pbc="F F F"
H        5.81403000      15.48711000       1.08949000
O        6.60811000      15.43560000       1.62369000
H        6.60662000      16.22808000       2.12819000
H        6.39509000      13.39276000      -0.46331000
O        6.09622000      13.25280000       0.44595000
H        6.41557000      13.99618000       0.93762000
