6
Properties=species:S:1:pos:R:3 frame=T 52=T |=T Written=T by=T MDAnalysis=T XYZWriter=T (release=T 2.4.3)=T pbc="F F F"
H       10.16718000      -8.07909000      -6.17561000
O       10.74051000      -7.27851000      -6.29921000
H       11.38894000      -7.61699000      -6.95388000
H        7.65308000      -9.51722000      -7.19235000
O        8.26533000      -9.06601000      -6.60917000
H        7.79754000      -8.22880000      -6.46709000
