6
Properties=species:S:1:pos:R:3 frame=T 28=T |=T Written=T by=T MDAnalysis=T XYZWriter=T (release=T 2.4.3)=T pbc="F F F"
H       -7.36212000      -7.19582000     -17.44815000
O       -7.69231000      -7.91808000     -17.99771000
H       -7.07961000      -8.60750000     -17.74079000
H       -8.81703000      -9.69894000     -16.95114000
O       -8.78359000     -10.45766000     -16.38197000
H       -9.73317000     -10.59462000     -16.18357000
