6
Properties=species:S:1:pos:R:3 frame=T 17=T |=T Written=T by=T MDAnalysis=T XYZWriter=T (release=T 2.4.3)=T pbc="F F F"
H       -7.63487000      -5.07770000     -13.68202000
O       -7.81127000      -4.27835000     -13.14227000
H       -8.05975000      -4.65614000     -12.29831000
H       -4.93440000      -3.55735000     -13.48896000
O       -5.26490000      -4.44618000     -13.71224000
H       -6.14687000      -4.39243000     -13.33072000
