6
Properties=species:S:1:pos:R:3 frame=T 22=T |=T Written=T by=T MDAnalysis=T XYZWriter=T (release=T 2.4.3)=T pbc="F F F"
H       -1.64468000       4.69292000       9.21284000
O       -1.28266000       3.85973000       9.53170000
H       -0.72252000       4.12314000      10.25758000
H        0.49769000       3.33903000       8.18946000
O        0.92920000       2.89268000       7.44900000
H        0.45621000       2.10127000       7.24237000
