6
Properties=species:S:1:pos:R:3 frame=T 26=T |=T Written=T by=T MDAnalysis=T XYZWriter=T (release=T 2.4.3)=T pbc="F F F"
H       15.69468000      16.12144000      -5.43150000
O       16.45322000      16.64271000      -5.14670000
H       16.55725000      16.35731000      -4.22308000
H       13.70129000      16.27514000      -5.77910000
O       14.17874000      15.42694000      -5.61104000
H       13.92887000      15.09550000      -4.74234000
