6
Properties=species:S:1:pos:R:3 frame=T 48=T |=T Written=T by=T MDAnalysis=T XYZWriter=T (release=T 2.4.3)=T pbc="F F F"
H        8.67218000      18.49619000      16.24239000
O        8.40290000      17.99591000      15.46002000
H        9.03660000      17.27946000      15.43216000
H        9.64689000      18.05532000      17.96905000
O        9.26838000      18.88651000      17.67995000
H        9.94208000      19.55519000      17.79917000
