6
Properties=species:S:1:pos:R:3 frame=T 13=T |=T Written=T by=T MDAnalysis=T XYZWriter=T (release=T 2.4.3)=T pbc="F F F"
H        7.27971000      17.49142000       8.16790000
O        7.32926000      18.05780000       8.94023000
H        8.23458000      18.43340000       8.85129000
H        8.08738000      16.78864000       9.96752000
O        8.43217000      16.07605000      10.47576000
H        9.36599000      16.14401000      10.26240000
