6
Properties=species:S:1:pos:R:3 frame=T 31=T |=T Written=T by=T MDAnalysis=T XYZWriter=T (release=T 2.4.3)=T pbc="F F F"
H        4.84430000       0.57763000     -16.40134000
O        5.44281000       0.97187000     -15.73663000
H        6.01487000       0.24844000     -15.49660000
H        5.42381000      -0.69089000     -13.01736000
O        4.63705000      -0.35336000     -13.46736000
H        4.84619000       0.12734000     -14.25585000
