6
Properties=species:S:1:pos:R:3 frame=T 23=T |=T Written=T by=T MDAnalysis=T XYZWriter=T (release=T 2.4.3)=T pbc="F F F"
H       -9.83050000      12.33333000      12.73297000
O       -9.19561000      12.18437000      13.48559000
H       -8.70866000      13.01197000      13.54168000
H      -10.22508000       9.49028000      13.35135000
O      -11.13076000       9.50030000      12.99266000
H      -11.25714000      10.45950000      12.86593000
