6
Properties=species:S:1:pos:R:3 frame=T 25=T |=T Written=T by=T MDAnalysis=T XYZWriter=T (release=T 2.4.3)=T pbc="F F F"
H       -4.32585000     -12.28754000       4.46815000
O       -4.22572000     -11.36135000       4.64135000
H       -4.15428000     -11.01386000       3.73981000
H       -3.50210000     -14.14659000       3.00251000
O       -4.22786000     -13.92733000       3.59251000
H       -4.85477000     -13.43826000       3.06226000
