6
Properties=species:S:1:pos:R:3 frame=T 48=T |=T Written=T by=T MDAnalysis=T XYZWriter=T (release=T 2.4.3)=T pbc="F F F"
H       18.18558000      16.14768000      -8.80487000
O       18.26167000      16.41815000      -7.86426000
H       18.22197000      15.58504000      -7.35402000
H       16.95195000      19.05066000      -8.60968000
O       16.20559000      18.74558000      -8.06528000
H       16.33008000      17.82872000      -8.03175000
