6
Properties=species:S:1:pos:R:3 frame=T 39=T |=T Written=T by=T MDAnalysis=T XYZWriter=T (release=T 2.4.3)=T pbc="F F F"
H      -15.95446000       0.18018000      -6.24126000
O      -16.36623000       0.45776000      -5.38615000
H      -16.27378000       1.40120000      -5.48842000
H      -17.41390000       0.11677000      -7.88483000
O      -17.41364000      -0.73159000      -8.33554000
H      -17.15056000      -0.48642000      -9.25473000
