6
Properties=species:S:1:pos:R:3 frame=T 6=T |=T Written=T by=T MDAnalysis=T XYZWriter=T (release=T 2.4.3)=T pbc="F F F"
H       -2.43377000      -3.44248000      -0.56150000
O       -2.78981000      -2.54065000      -0.57730000
H       -2.62249000      -2.19660000       0.31294000
H       -0.79312000      -2.00214000       1.55931000
O       -1.55400000      -1.42374000       1.59599000
H       -2.18042000      -1.97833000       2.11068000
