6
Properties=species:S:1:pos:R:3 frame=T 35=T |=T Written=T by=T MDAnalysis=T XYZWriter=T (release=T 2.4.3)=T pbc="F F F"
H       14.62039000       0.35264000       7.62217000
O       14.32031000       0.55981000       6.73130000
H       14.76033000       1.41651000       6.52529000
H       16.78189000       1.20615000       8.64469000
O       15.97582000       1.47534000       9.04162000
H       15.99599000       2.44876000       9.14820000
