6
Properties=species:S:1:pos:R:3 frame=T 10=T |=T Written=T by=T MDAnalysis=T XYZWriter=T (release=T 2.4.3)=T pbc="F F F"
H       -6.76178000      -6.23293000       5.41605000
O       -7.56222000      -6.32089000       4.87857000
H       -7.69789000      -5.44262000       4.50658000
H       -8.99578000      -6.47433000       6.13872000
O       -9.46240000      -6.13484000       6.92440000
H       -9.31729000      -5.15772000       6.84407000
