6
Properties=species:S:1:pos:R:3 frame=T 20=T |=T Written=T by=T MDAnalysis=T XYZWriter=T (release=T 2.4.3)=T pbc="F F F"
H        9.20072000      -5.05688000       3.95659000
O        8.39332000      -4.54633000       3.87831000
H        8.68508000      -3.61177000       3.84167000
H        7.13648000      -4.87316000       5.02668000
O        6.72505000      -4.56869000       5.86925000
H        7.33049000      -3.93553000       6.27902000
