6
Properties=species:S:1:pos:R:3 frame=T 23=T |=T Written=T by=T MDAnalysis=T XYZWriter=T (release=T 2.4.3)=T pbc="F F F"
H      -11.78862000      15.70528000      -2.14614000
O      -10.85244000      15.83395000      -2.14385000
H      -10.71244000      16.61462000      -1.58184000
H      -10.67519000      13.63780000      -0.52827000
O       -9.90484000      13.63168000      -1.10644000
H      -10.14282000      14.34177000      -1.72717000
