6
Properties=species:S:1:pos:R:3 frame=T 14=T |=T Written=T by=T MDAnalysis=T XYZWriter=T (release=T 2.4.3)=T pbc="F F F"
H        3.66840000      17.62876000       7.29559000
O        3.13602000      16.93640000       7.72004000
H        2.35172000      17.45248000       7.83125000
H        5.23969000      17.07052000       9.41677000
O        4.47558000      16.90818000       9.98071000
H        3.72720000      16.77418000       9.38113000
