6
Properties=species:S:1:pos:R:3 frame=T 29=T |=T Written=T by=T MDAnalysis=T XYZWriter=T (release=T 2.4.3)=T pbc="F F F"
H      -12.51629000       5.09323000      -7.23622000
O      -11.92818000       4.67206000      -6.62797000
H      -11.78192000       3.81762000      -7.01270000
H      -10.09794000       5.10388000      -9.13225000
O      -10.72293000       5.84261000      -8.92999000
H      -10.83092000       5.66504000      -8.01927000
