6
Properties=species:S:1:pos:R:3 frame=T 32=T |=T Written=T by=T MDAnalysis=T XYZWriter=T (release=T 2.4.3)=T pbc="F F F"
H      -13.88641000      15.54666000      13.26033000
O      -12.97874000      15.27526000      13.52865000
H      -12.87405000      15.78650000      14.33073000
H      -13.13100000      13.75566000      14.67232000
O      -12.82003000      13.36242000      15.49872000
H      -12.00591000      13.85074000      15.65077000
