6
Properties=species:S:1:pos:R:3 frame=T 22=T |=T Written=T by=T MDAnalysis=T XYZWriter=T (release=T 2.4.3)=T pbc="F F F"
H        9.60376000      16.39047000      -1.67374000
O        9.66967000      17.21632000      -1.18722000
H        9.32025000      17.83225000      -1.82360000
H        8.52579000      18.27991000      -3.56333000
O        8.78483000      18.97748000      -2.92634000
H        9.59795000      19.33970000      -3.29746000
