6
Properties=species:S:1:pos:R:3 frame=T 37=T |=T Written=T by=T MDAnalysis=T XYZWriter=T (release=T 2.4.3)=T pbc="F F F"
H       16.83416000      11.18856000     -17.43883000
O       17.66284000      11.64407000     -17.48107000
H       18.29544000      10.95217000     -17.62256000
H       13.98162000      10.58598000     -17.41516000
O       14.90560000      10.70307000     -17.72974000
H       14.89897000      10.18786000     -18.54309000
