6
Properties=species:S:1:pos:R:3 frame=T 26=T |=T Written=T by=T MDAnalysis=T XYZWriter=T (release=T 2.4.3)=T pbc="F F F"
H       13.96144000      -1.07050000      12.88366000
O       13.60600000      -1.96026000      12.89795000
H       12.96837000      -2.02434000      12.18709000
H       15.52465000       0.73752000      13.87496000
O       14.69203000       0.27437000      14.01205000
H       14.46101000       0.65064000      14.91140000
