6
Properties=species:S:1:pos:R:3 frame=T 34=T |=T Written=T by=T MDAnalysis=T XYZWriter=T (release=T 2.4.3)=T pbc="F F F"
H        5.10787000      -5.84010000      10.79431000
O        5.04809000      -5.95474000      11.75808000
H        4.55320000      -6.76573000      11.81524000
H        4.34320000      -9.08111000      11.42489000
O        3.61789000      -8.47065000      11.49017000
H        3.65258000      -7.93995000      10.66462000
