6
Properties=species:S:1:pos:R:3 frame=T 14=T |=T Written=T by=T MDAnalysis=T XYZWriter=T (release=T 2.4.3)=T pbc="F F F"
H       -1.23145000      -6.86877000       3.97096000
O       -1.15961000      -6.37809000       3.15049000
H       -0.91273000      -7.05823000       2.49666000
H        1.78430000      -7.71134000       4.25083000
O        1.28433000      -6.91698000       4.14914000
H        0.68814000      -7.07465000       3.41104000
