6
Properties=species:S:1:pos:R:3 frame=T 1=T |=T Written=T by=T MDAnalysis=T XYZWriter=T (release=T 2.4.3)=T pbc="F F F"
H       10.82224000       2.06985000     -12.80405000
O       11.62383000       2.46602000     -13.16138000
H       12.36728000       1.90859000     -12.82479000
H       12.55449000       4.57351000     -15.11742000
O       11.82033000       4.46467000     -15.74748000
H       11.44843000       3.61302000     -15.53927000
