6
Properties=species:S:1:pos:R:3 frame=T 27=T |=T Written=T by=T MDAnalysis=T XYZWriter=T (release=T 2.4.3)=T pbc="F F F"
H      -13.40459000       6.05632000       8.48913000
O      -12.56223000       5.77699000       8.83459000
H      -12.11178000       6.63844000       8.88749000
H      -14.92194000       7.10813000       8.96486000
O      -14.63865000       7.92075000       8.52684000
H      -13.68332000       7.94279000       8.70751000
