6
Properties=species:S:1:pos:R:3 frame=T 6=T |=T Written=T by=T MDAnalysis=T XYZWriter=T (release=T 2.4.3)=T pbc="F F F"
H       12.17270000       9.34407000       7.51815000
O       11.52506000       9.78726000       8.05920000
H       11.87330000      10.69376000       8.15820000
H       10.35499000       8.38584000       9.63361000
O        9.66397000       7.70733000       9.59693000
H        9.02061000       7.96767000      10.24345000
