6
Properties=species:S:1:pos:R:3 frame=T 35=T |=T Written=T by=T MDAnalysis=T XYZWriter=T (release=T 2.4.3)=T pbc="F F F"
H       -6.25359000       3.80134000       6.66626000
O       -7.16454000       4.07293000       6.46563000
H       -7.44156000       4.55847000       7.25741000
H       -8.04920000       4.00752000       3.20854000
O       -7.31615000       4.58155000       3.54963000
H       -7.42271000       4.41046000       4.47100000
