6
Properties=species:S:1:pos:R:3 frame=T 37=T |=T Written=T by=T MDAnalysis=T XYZWriter=T (release=T 2.4.3)=T pbc="F F F"
H       -5.92135000       5.32751000       3.53580000
O       -6.34573000       4.72216000       2.92482000
H       -5.71097000       4.48505000       2.26068000
H       -6.93008000       5.70458000       1.72700000
O       -7.37618000       6.27275000       1.10609000
H       -6.67809000       6.69808000       0.56963000
