6
Properties=species:S:1:pos:R:3 frame=T 47=T |=T Written=T by=T MDAnalysis=T XYZWriter=T (release=T 2.4.3)=T pbc="F F F"
H        7.71726000     -17.67007000      12.48010000
O        6.88398000     -17.14088000      12.48685000
H        6.32637000     -17.53295000      13.18990000
H       10.20245000     -18.31359000      12.25601000
O        9.40762000     -18.36622000      11.67160000
H        9.76326000     -18.03918000      10.82294000
