6
Properties=species:S:1:pos:R:3 frame=T 11=T |=T Written=T by=T MDAnalysis=T XYZWriter=T (release=T 2.4.3)=T pbc="F F F"
H        2.87814000     -17.77973000     -18.71261000
O        2.35501000     -18.00921000     -17.92421000
H        1.42563000     -17.77509000     -18.14357000
H        1.45883000     -16.26170000     -16.56284000
O        1.52397000     -15.36829000     -16.21965000
H        2.15873000     -15.43182000     -15.49101000
