6
Properties=species:S:1:pos:R:3 frame=T 32=T |=T Written=T by=T MDAnalysis=T XYZWriter=T (release=T 2.4.3)=T pbc="F F F"
H      -18.41726000     -14.29193000      -4.36546000
O      -18.26571000     -13.68000000      -3.67116000
H      -18.07701000     -14.18278000      -2.86621000
H      -18.06149000     -15.95207000      -6.48173000
O      -18.66454000     -15.40136000      -5.92455000
H      -19.31849000     -15.15755000      -6.59408000
