6
Properties=species:S:1:pos:R:3 frame=T 28=T |=T Written=T by=T MDAnalysis=T XYZWriter=T (release=T 2.4.3)=T pbc="F F F"
H        2.26869000       4.33103000      -2.30170000
O        2.65307000       4.80871000      -1.53688000
H        1.88042000       5.38389000      -1.28050000
H       -0.38009000       4.59690000      -3.21006000
O        0.55141000       4.72974000      -3.44938000
H        0.59578000       5.68972000      -3.72144000
