6
Properties=species:S:1:pos:R:3 frame=T 17=T |=T Written=T by=T MDAnalysis=T XYZWriter=T (release=T 2.4.3)=T pbc="F F F"
H        7.82662000     -11.84825000      -2.14142000
O        8.58619000     -12.07511000      -2.68321000
H        8.44477000     -12.99042000      -2.92309000
H        6.21990000     -12.70549000      -1.94958000
O        6.19263000     -11.81211000      -1.57605000
H        5.78358000     -11.95758000      -0.70856000
