6
Properties=species:S:1:pos:R:3 frame=T 30=T |=T Written=T by=T MDAnalysis=T XYZWriter=T (release=T 2.4.3)=T pbc="F F F"
H        1.88512000     -11.76294000       2.41971000
O        1.72447000     -12.53206000       2.95247000
H        0.81810000     -12.73016000       2.71715000
H        2.53199000     -13.87429000       0.45021000
O        2.91589000     -14.27210000       1.23856000
H        2.81372000     -13.58682000       1.94714000
