6
Properties=species:S:1:pos:R:3 frame=T 27=T |=T Written=T by=T MDAnalysis=T XYZWriter=T (release=T 2.4.3)=T pbc="F F F"
H        3.11145000     -13.37904000      -9.21573000
O        3.55279000     -12.80410000      -9.87795000
H        4.03173000     -12.17417000      -9.34252000
H        4.68991000     -12.01174000      -7.44142000
O        3.95932000     -11.38544000      -7.36489000
H        4.28687000     -10.57658000      -7.75369000
