6
Properties=species:S:1:pos:R:3 frame=T 25=T |=T Written=T by=T MDAnalysis=T XYZWriter=T (release=T 2.4.3)=T pbc="F F F"
H       -7.89105000     -16.91716000      -2.45461000
O       -7.89651000     -16.68978000      -1.50649000
H       -7.31824000     -17.35475000      -1.08238000
H       -9.38994000     -14.14328000      -0.31258000
O       -8.54106000     -13.88749000      -0.71357000
H       -8.11926000     -14.73229000      -0.93710000
