6
Properties=species:S:1:pos:R:3 frame=T 20=T |=T Written=T by=T MDAnalysis=T XYZWriter=T (release=T 2.4.3)=T pbc="F F F"
H       -0.29953000     -18.07932000     -12.67880000
O       -1.22140000     -17.89673000     -12.38129000
H       -1.25826000     -16.91338000     -12.47002000
H       -0.38727000     -15.28072000     -11.43409000
O       -0.58579000     -15.15701000     -12.37261000
H        0.29014000     -15.15843000     -12.77339000
