6
Properties=species:S:1:pos:R:3 frame=T 6=T |=T Written=T by=T MDAnalysis=T XYZWriter=T (release=T 2.4.3)=T pbc="F F F"
H      -15.14312000       7.34053000     -10.78347000
O      -15.40223000       8.16444000     -11.19461000
H      -14.79789000       8.19983000     -11.95495000
H      -14.18744000       9.46135000     -14.46561000
O      -13.55914000       9.48458000     -13.70240000
H      -13.57796000       8.53768000     -13.41480000
