6
Properties=species:S:1:pos:R:3 frame=T 42=T |=T Written=T by=T MDAnalysis=T XYZWriter=T (release=T 2.4.3)=T pbc="F F F"
H      -17.06143000      -8.88116000     -18.31587000
O      -17.39904000      -8.36248000     -17.56530000
H      -17.67752000      -7.55924000     -18.01406000
H      -16.34529000      -6.80173000     -15.02106000
O      -17.06879000      -7.34503000     -14.68592000
H      -17.31156000      -7.83632000     -15.47324000
