6
Properties=species:S:1:pos:R:3 frame=T 49=T |=T Written=T by=T MDAnalysis=T XYZWriter=T (release=T 2.4.3)=T pbc="F F F"
H       12.59692000      -5.84949000       4.23318000
O       12.22356000      -6.53672000       4.80840000
H       11.57015000      -6.99146000       4.27912000
H       13.82908000      -7.02176000       5.02181000
O       14.80220000      -7.00884000       4.93447000
H       14.93411000      -7.26171000       4.00609000
