6
Properties=species:S:1:pos:R:3 frame=T 41=T |=T Written=T by=T MDAnalysis=T XYZWriter=T (release=T 2.4.3)=T pbc="F F F"
H        8.42981000      -4.03735000       6.06418000
O        8.48141000      -4.14928000       7.01206000
H        8.79289000      -3.29569000       7.29885000
H        8.69368000      -3.80173000       3.63861000
O        8.40870000      -3.32837000       4.46573000
H        9.24324000      -3.01431000       4.83541000
