6
Properties=species:S:1:pos:R:3 frame=T 13=T |=T Written=T by=T MDAnalysis=T XYZWriter=T (release=T 2.4.3)=T pbc="F F F"
H       16.51653000      -1.85072000      -1.82988000
O       17.19521000      -1.90766000      -2.56613000
H       17.56218000      -0.99304000      -2.57034000
H       14.37200000      -0.29412000      -3.05535000
O       14.85354000      -0.74547000      -3.75546000
H       15.73714000      -0.85051000      -3.35812000
