6
Properties=species:S:1:pos:R:3 frame=T 52=T |=T Written=T by=T MDAnalysis=T XYZWriter=T (release=T 2.4.3)=T pbc="F F F"
H       -9.29698000     -13.11456000      -2.31917000
O       -8.53170000     -13.22972000      -1.74581000
H       -8.70497000     -13.89227000      -1.06562000
H      -11.92878000     -13.50916000      -1.08861000
O      -11.03977000     -13.48443000      -0.76962000
H      -10.95280000     -12.63153000      -0.33251000
