6
Properties=species:S:1:pos:R:3 frame=T 2=T |=T Written=T by=T MDAnalysis=T XYZWriter=T (release=T 2.4.3)=T pbc="F F F"
H       -1.74589000       8.16018000      11.01328000
O       -2.59363000       7.69910000      10.97327000
H       -3.26487000       8.28849000      11.32585000
H       -2.67880000       5.71523000      11.49116000
O       -2.50262000       5.05009000      12.17631000
H       -3.10887000       4.33260000      11.95177000
