6
Properties=species:S:1:pos:R:3 frame=T 28=T |=T Written=T by=T MDAnalysis=T XYZWriter=T (release=T 2.4.3)=T pbc="F F F"
H       -9.94509000      -2.40757000      16.87761000
O       -9.87992000      -3.16444000      16.30269000
H      -10.77377000      -3.56220000      16.23704000
H      -11.12916000      -2.71120000      18.18930000
O      -11.07841000      -2.96552000      19.12220000
H      -11.84789000      -3.55251000      19.10487000
