6
Properties=species:S:1:pos:R:3 frame=T 10=T |=T Written=T by=T MDAnalysis=T XYZWriter=T (release=T 2.4.3)=T pbc="F F F"
H      -16.56523000       7.75514000       7.43329000
O      -17.28664000       7.24644000       7.83969000
H      -17.42894000       6.47484000       7.25344000
H      -17.26406000       8.59244000      10.95300000
O      -17.07417000       9.14470000      10.16668000
H      -16.72762000       8.53084000       9.49936000
