6
Properties=species:S:1:pos:R:3 frame=T 23=T |=T Written=T by=T MDAnalysis=T XYZWriter=T (release=T 2.4.3)=T pbc="F F F"
H        9.87087000      -0.96215000     -15.73569000
O       10.20687000      -1.76501000     -16.19995000
H        9.57195000      -1.95289000     -16.91660000
H        8.02513000      -3.00868000     -18.11831000
O        8.78534000      -2.46189000     -18.40415000
H        8.54326000      -1.56611000     -18.10742000
