6
Properties=species:S:1:pos:R:3 frame=T 22=T |=T Written=T by=T MDAnalysis=T XYZWriter=T (release=T 2.4.3)=T pbc="F F F"
H        7.02462000      -4.14650000      -5.05078000
O        7.56774000      -3.34050000      -5.05629000
H        8.46062000      -3.68142000      -5.23574000
H        9.07422000      -5.79760000      -5.06414000
O        9.50199000      -5.15508000      -5.62634000
H        9.51442000      -5.60877000      -6.48735000
