6
Properties=species:S:1:pos:R:3 frame=T 23=T |=T Written=T by=T MDAnalysis=T XYZWriter=T (release=T 2.4.3)=T pbc="F F F"
H       18.05953000      -8.83365000       7.96515000
O       18.46249000      -9.47752000       8.53826000
H       19.19318000      -9.85906000       8.02392000
H       18.23716000      -6.99031000       7.41710000
O       18.36121000      -6.11171000       7.82096000
H       17.48239000      -5.86689000       8.18441000
