6
Properties=species:S:1:pos:R:3 frame=T 41=T |=T Written=T by=T MDAnalysis=T XYZWriter=T (release=T 2.4.3)=T pbc="F F F"
H      -10.90030000     -12.83907000       9.64194000
O       -9.97914000     -12.96311000       9.39064000
H       -9.54379000     -13.14426000      10.21569000
H      -13.46416000     -12.09038000       8.30193000
O      -12.59557000     -12.24344000       8.67227000
H      -12.12992000     -11.56289000       8.18042000
