6
Properties=species:S:1:pos:R:3 frame=T 37=T |=T Written=T by=T MDAnalysis=T XYZWriter=T (release=T 2.4.3)=T pbc="F F F"
H       -3.11296000     -15.06318000     -15.02042000
O       -3.44305000     -14.85204000     -15.91949000
H       -4.20883000     -15.46964000     -15.97209000
H       -1.83418000     -12.08091000     -17.03462000
O       -1.62618000     -12.54317000     -16.20588000
H       -2.32681000     -13.18258000     -16.12766000
