6
Properties=species:S:1:pos:R:3 frame=T 37=T |=T Written=T by=T MDAnalysis=T XYZWriter=T (release=T 2.4.3)=T pbc="F F F"
H       15.01388000       3.20297000     -15.39154000
O       15.45941000       2.73951000     -14.67286000
H       15.82927000       3.46474000     -14.19130000
H       14.16544000       2.42704000     -12.82016000
O       13.32029000       2.67951000     -12.43606000
H       13.24976000       2.12079000     -11.67617000
