6
Properties=species:S:1:pos:R:3 frame=T 50=T |=T Written=T by=T MDAnalysis=T XYZWriter=T (release=T 2.4.3)=T pbc="F F F"
H      -13.82125000      18.84028000     -17.33692000
O      -13.58956000      18.32542000     -18.11060000
H      -13.13264000      17.54974000     -17.76657000
H      -12.68224000      15.13137000     -18.80402000
O      -12.33806000      15.96380000     -18.48996000
H      -11.39487000      15.79047000     -18.50759000
