6
Properties=species:S:1:pos:R:3 frame=T 28=T |=T Written=T by=T MDAnalysis=T XYZWriter=T (release=T 2.4.3)=T pbc="F F F"
H        1.26772000      14.06581000      11.59972000
O        1.92730000      13.51152000      12.02779000
H        2.42784000      13.22093000      11.27143000
H        0.00204000      11.43870000      11.14424000
O       -0.16877000      11.70872000      12.03890000
H        0.66528000      12.05832000      12.31999000
