6
Properties=species:S:1:pos:R:3 frame=T 33=T |=T Written=T by=T MDAnalysis=T XYZWriter=T (release=T 2.4.3)=T pbc="F F F"
H      -15.67962000      11.40830000     -11.63016000
O      -15.04149000      11.00061000     -12.26024000
H      -14.17380000      11.02967000     -11.84027000
H      -16.15536000      13.19012000     -10.73814000
O      -15.58759000      13.56400000     -10.05262000
H      -14.99308000      14.16470000     -10.51615000
