6
Properties=species:S:1:pos:R:3 frame=T 34=T |=T Written=T by=T MDAnalysis=T XYZWriter=T (release=T 2.4.3)=T pbc="F F F"
H      -13.04260000     -10.42816000      12.52296000
O      -13.75300000     -10.71285000      11.90164000
H      -13.37104000     -10.56928000      11.04342000
H      -12.20874000     -10.93486000       9.12286000
O      -12.98337000     -10.37925000       9.01645000
H      -12.95114000     -10.20592000       8.07503000
