6
Properties=species:S:1:pos:R:3 frame=T 38=T |=T Written=T by=T MDAnalysis=T XYZWriter=T (release=T 2.4.3)=T pbc="F F F"
H      -11.65839000       2.93542000       5.83299000
O      -12.39682000       2.30944000       6.00615000
H      -12.48886000       2.03977000       5.07706000
H      -11.37951000       1.01577000       5.74162000
O      -10.64572000       0.42375000       5.55994000
H      -10.26554000       0.87305000       4.81152000
