6
Properties=species:S:1:pos:R:3 frame=T 6=T |=T Written=T by=T MDAnalysis=T XYZWriter=T (release=T 2.4.3)=T pbc="F F F"
H       17.18099000      16.99915000      -9.09002000
O       16.65688000      16.97455000      -8.27509000
H       17.33826000      17.09329000      -7.57352000
H       15.00513000      18.10525000     -11.70323000
O       15.48653000      17.75983000     -10.98047000
H       15.53501000      16.80819000     -11.22619000
