6
Properties=species:S:1:pos:R:3 frame=T 2=T |=T Written=T by=T MDAnalysis=T XYZWriter=T (release=T 2.4.3)=T pbc="F F F"
H       16.82915000     -13.30097000      -7.44651000
O       16.64946000     -12.42892000      -7.08760000
H       17.48918000     -12.00833000      -6.85947000
H       16.73410000     -10.91324000      -8.05255000
O       17.10001000     -10.07702000      -8.36490000
H       17.49342000      -9.65113000      -7.58075000
