6
Properties=species:S:1:pos:R:3 frame=T 34=T |=T Written=T by=T MDAnalysis=T XYZWriter=T (release=T 2.4.3)=T pbc="F F F"
H       -3.78433000       2.23926000     -18.90054000
O       -3.38409000       2.27497000     -18.02083000
H       -3.82706000       3.03442000     -17.57491000
H       -4.43741000      -0.47682000     -18.69978000
O       -5.07007000       0.20249000     -18.51602000
H       -4.48765000       0.90359000     -18.21038000
