6
Properties=species:S:1:pos:R:3 frame=T 6=T |=T Written=T by=T MDAnalysis=T XYZWriter=T (release=T 2.4.3)=T pbc="F F F"
H       -0.14240000      16.90699000       3.85027000
O        0.32081000      17.69202000       3.55072000
H        1.07664000      17.75903000       4.14681000
H        0.85885000      14.66540000       4.68686000
O        0.67565000      15.49041000       5.18554000
H        1.51338000      15.69982000       5.65045000
