6
Properties=species:S:1:pos:R:3 frame=T 28=T |=T Written=T by=T MDAnalysis=T XYZWriter=T (release=T 2.4.3)=T pbc="F F F"
H       -0.45936000       4.62509000     -17.03397000
O       -0.41256000       3.92742000     -16.36568000
H        0.16971000       4.27702000     -15.68523000
H       -1.12917000       2.04240000     -16.36587000
O       -1.98067000       1.57370000     -16.39494000
H       -2.02864000       1.17261000     -15.51509000
