6
Properties=species:S:1:pos:R:3 frame=T 5=T |=T Written=T by=T MDAnalysis=T XYZWriter=T (release=T 2.4.3)=T pbc="F F F"
H        1.03551000      -5.00016000     -16.67994000
O        1.85846000      -4.60534000     -16.43032000
H        2.23386000      -5.20090000     -15.78695000
H       -1.12658000      -4.64975000     -16.84788000
O       -1.18807000      -5.57626000     -16.53256000
H       -1.92239000      -5.50044000     -15.94819000
