6
Properties=species:S:1:pos:R:3 frame=T 38=T |=T Written=T by=T MDAnalysis=T XYZWriter=T (release=T 2.4.3)=T pbc="F F F"
H        4.48562000     -10.52699000     -16.42074000
O        5.13825000     -11.21753000     -16.38750000
H        5.64520000     -11.13769000     -17.21406000
H        7.64632000     -12.02293000     -18.83393000
O        7.48400000     -11.71882000     -17.90098000
H        7.78949000     -12.50550000     -17.41032000
