6
Properties=species:S:1:pos:R:3 frame=T 11=T |=T Written=T by=T MDAnalysis=T XYZWriter=T (release=T 2.4.3)=T pbc="F F F"
H       10.06398000       4.64479000      -9.37552000
O       10.98837000       4.41317000      -9.28827000
H       11.39481000       4.82825000     -10.06754000
H       12.53623000       2.77452000     -12.49463000
O       12.68991000       3.33384000     -11.73425000
H       11.88529000       3.85305000     -11.75927000
