6
Properties=species:S:1:pos:R:3 frame=T 9=T |=T Written=T by=T MDAnalysis=T XYZWriter=T (release=T 2.4.3)=T pbc="F F F"
H      -15.65202000      11.06972000       7.89447000
O      -14.97379000      10.66065000       7.29877000
H      -14.58724000      10.03120000       7.92608000
H      -14.35929000       7.96926000       9.16024000
O      -14.97719000       8.71051000       9.06415000
H      -15.71859000       8.49522000       8.47169000
