6
Properties=species:S:1:pos:R:3 frame=T 17=T |=T Written=T by=T MDAnalysis=T XYZWriter=T (release=T 2.4.3)=T pbc="F F F"
H        0.02350000       0.57162000      13.89780000
O        0.74915000       1.10260000      14.22970000
H        0.37100000       1.85456000      14.71707000
H        0.51880000      -0.97112000      16.31482000
O        1.43037000      -0.61600000      16.36910000
H        1.66385000      -0.26930000      15.47564000
