6
Properties=species:S:1:pos:R:3 frame=T 29=T |=T Written=T by=T MDAnalysis=T XYZWriter=T (release=T 2.4.3)=T pbc="F F F"
H      -16.41463000       6.78002000      -9.31045000
O      -16.20367000       5.84154000      -9.18399000
H      -16.94006000       5.50231000      -8.62167000
H      -14.48417000       6.02691000      -8.40473000
O      -13.96323000       6.36335000      -7.68758000
H      -14.61812000       6.33519000      -7.01275000
