6
Properties=species:S:1:pos:R:3 frame=T 7=T |=T Written=T by=T MDAnalysis=T XYZWriter=T (release=T 2.4.3)=T pbc="F F F"
H       -0.81862000     -16.10827000      15.99870000
O       -1.18625000     -16.66640000      15.31072000
H       -0.71086000     -16.39572000      14.50954000
H        0.38929000     -18.34666000      15.29109000
O        0.17916000     -19.21479000      14.85287000
H       -0.80036000     -19.07788000      14.74353000
