6
Properties=species:S:1:pos:R:3 frame=T 33=T |=T Written=T by=T MDAnalysis=T XYZWriter=T (release=T 2.4.3)=T pbc="F F F"
H       -3.55799000      -5.03804000      12.32241000
O       -4.16828000      -4.27579000      12.29200000
H       -4.55651000      -4.36869000      11.40880000
H       -3.85609000      -2.38877000      10.34319000
O       -3.39039000      -1.69443000      10.80989000
H       -4.07179000      -1.32292000      11.35176000
