6
Properties=species:S:1:pos:R:3 frame=T 8=T |=T Written=T by=T MDAnalysis=T XYZWriter=T (release=T 2.4.3)=T pbc="F F F"
H       -5.82825000     -13.54996000      16.69879000
O       -5.50004000     -14.25033000      17.24215000
H       -5.03975000     -13.80994000      17.95552000
H       -6.96508000     -13.12287000      14.11721000
O       -6.36027000     -13.00813000      14.82510000
H       -6.30826000     -12.03637000      14.90913000
