6
Properties=species:S:1:pos:R:3 frame=T 2=T |=T Written=T by=T MDAnalysis=T XYZWriter=T (release=T 2.4.3)=T pbc="F F F"
H      -11.36516000     -17.90962000      -6.91333000
O      -11.61137000     -17.57889000      -7.75879000
H      -11.39315000     -16.63070000      -7.77881000
H      -13.02235000     -17.91426000     -10.93839000
O      -12.40891000     -17.53178000     -10.32448000
H      -12.49529000     -18.08158000      -9.54204000
