6
Properties=species:S:1:pos:R:3 frame=T 38=T |=T Written=T by=T MDAnalysis=T XYZWriter=T (release=T 2.4.3)=T pbc="F F F"
H       15.80952000      -3.26974000     -12.53071000
O       16.49148000      -2.80683000     -12.00528000
H       16.11496000      -1.90039000     -12.01303000
H       17.38170000      -1.80450000     -14.76469000
O       18.05604000      -2.25616000     -14.24994000
H       17.54201000      -2.63183000     -13.48787000
