6
Properties=species:S:1:pos:R:3 frame=T 27=T |=T Written=T by=T MDAnalysis=T XYZWriter=T (release=T 2.4.3)=T pbc="F F F"
H       10.33909000      17.77315000      -1.60586000
O        9.61159000      17.55353000      -2.23313000
H        8.78609000      17.68820000      -1.75035000
H        9.56793000      16.42620000       0.68177000
O        8.67893000      16.70805000       0.41998000
H        8.04031000      16.19872000       0.90675000
