6
Properties=species:S:1:pos:R:3 frame=T 48=T |=T Written=T by=T MDAnalysis=T XYZWriter=T (release=T 2.4.3)=T pbc="F F F"
H      -14.08149000     -11.20979000      -9.25334000
O      -14.20231000     -10.28231000      -8.99461000
H      -14.89184000     -10.30866000      -8.28531000
H      -13.76325000     -11.23556000      -6.56389000
O      -12.83974000     -11.36268000      -6.28749000
H      -12.88437000     -11.69050000      -5.37765000
