6
Properties=species:S:1:pos:R:3 frame=T 44=T |=T Written=T by=T MDAnalysis=T XYZWriter=T (release=T 2.4.3)=T pbc="F F F"
H      -16.98923000       3.43983000       1.31619000
O      -16.66950000       3.30987000       2.21408000
H      -16.90255000       4.08462000       2.74010000
H      -16.89962000       1.37758000       3.44030000
O      -16.80216000       0.45776000       3.20808000
H      -16.71965000       0.47581000       2.25275000
