6
Properties=species:S:1:pos:R:3 frame=T 19=T |=T Written=T by=T MDAnalysis=T XYZWriter=T (release=T 2.4.3)=T pbc="F F F"
H        8.82387000       9.48036000      -9.15930000
O        9.60272000       9.23077000      -8.64277000
H        9.94630000       8.48447000      -9.08395000
H        7.33718000       8.86844000     -10.55302000
O        7.12170000       9.58728000      -9.90679000
H        7.63132000      10.34156000     -10.26282000
