6
Properties=species:S:1:pos:R:3 frame=T 9=T |=T Written=T by=T MDAnalysis=T XYZWriter=T (release=T 2.4.3)=T pbc="F F F"
H       17.77821000      10.82872000      -2.21430000
O       18.62604000      11.11800000      -2.57177000
H       18.89202000      11.81103000      -1.93772000
H       17.57049000      12.82988000      -3.39877000
O       16.99051000      12.90320000      -4.18292000
H       17.43633000      12.25951000      -4.72352000
