6
Properties=species:S:1:pos:R:3 frame=T 30=T |=T Written=T by=T MDAnalysis=T XYZWriter=T (release=T 2.4.3)=T pbc="F F F"
H       -5.60665000      -2.75584000      -0.55229000
O       -4.75412000      -3.22162000      -0.43100000
H       -4.99679000      -4.15904000      -0.29624000
H       -3.76194000      -3.61159000      -2.05316000
O       -3.05611000      -4.24283000      -2.25422000
H       -3.05854000      -4.94287000      -1.53869000
