6
Properties=species:S:1:pos:R:3 frame=T 48=T |=T Written=T by=T MDAnalysis=T XYZWriter=T (release=T 2.4.3)=T pbc="F F F"
H        0.31525000     -16.22263000     -19.34827000
O       -0.20921000     -15.81291000     -18.64808000
H       -0.58370000     -16.58032000     -18.14439000
H       -0.92240000     -12.62276000     -18.89537000
O       -0.59435000     -12.98757000     -18.05650000
H       -0.62024000     -13.94994000     -18.21363000
