6
Properties=species:S:1:pos:R:3 frame=T 51=T |=T Written=T by=T MDAnalysis=T XYZWriter=T (release=T 2.4.3)=T pbc="F F F"
H      -15.97319000      -5.30348000      -1.35436000
O      -15.95169000      -5.75634000      -0.51774000
H      -15.81636000      -6.70091000      -0.71510000
H      -16.10928000      -4.35589000      -3.43130000
O      -15.62791000      -5.09504000      -3.05525000
H      -16.25674000      -5.83072000      -3.16938000
