6
Properties=species:S:1:pos:R:3 frame=T 40=T |=T Written=T by=T MDAnalysis=T XYZWriter=T (release=T 2.4.3)=T pbc="F F F"
H      -18.35561000       3.01746000      12.99747000
O      -18.58293000       2.05986000      12.92325000
H      -17.84053000       1.59443000      13.38706000
H      -19.39602000       0.32251000      11.63273000
O      -19.19677000       0.46523000      10.70946000
H      -18.33593000       0.93502000      10.71585000
