6
Properties=species:S:1:pos:R:3 frame=T 19=T |=T Written=T by=T MDAnalysis=T XYZWriter=T (release=T 2.4.3)=T pbc="F F F"
H       15.49789000       3.26405000       0.68721000
O       15.01114000       3.12916000      -0.14006000
H       15.50529000       3.68402000      -0.77675000
H       16.86701000       1.02378000       0.54748000
O       16.43364000       0.66469000      -0.24208000
H       15.85323000       1.38298000      -0.44891000
