6
Properties=species:S:1:pos:R:3 frame=T 38=T |=T Written=T by=T MDAnalysis=T XYZWriter=T (release=T 2.4.3)=T pbc="F F F"
H       -8.15547000       9.85900000      16.42139000
O       -7.48437000      10.14600000      17.03592000
H       -7.96085000      10.74734000      17.62818000
H       -9.02193000       7.77357000      15.96432000
O       -9.68378000       7.99399000      16.62857000
H       -9.15823000       8.44996000      17.30048000
