6
Properties=species:S:1:pos:R:3 frame=T 48=T |=T Written=T by=T MDAnalysis=T XYZWriter=T (release=T 2.4.3)=T pbc="F F F"
H       -2.12556000     -16.73951000     -12.91465000
O       -1.58087000     -16.39714000     -12.19582000
H       -2.15510000     -16.27843000     -11.43284000
H       -1.59982000     -16.17031000      -9.75502000
O       -1.49371000     -15.52007000      -9.04914000
H       -0.54589000     -15.49085000      -8.95328000
