6
Properties=species:S:1:pos:R:3 frame=T 35=T |=T Written=T by=T MDAnalysis=T XYZWriter=T (release=T 2.4.3)=T pbc="F F F"
H        2.20944000      -9.76823000      13.19486000
O        1.48179000      -9.25756000      12.84537000
H        1.85686000      -8.76206000      12.10868000
H        3.65535000      -8.90646000      11.39039000
O        3.36803000      -8.04148000      11.08719000
H        3.16538000      -8.20238000      10.16015000
