6
Properties=species:S:1:pos:R:3 frame=T 48=T |=T Written=T by=T MDAnalysis=T XYZWriter=T (release=T 2.4.3)=T pbc="F F F"
H       14.53485000       5.67326000      -4.64268000
O       14.26072000       6.16209000      -3.85311000
H       15.10629000       6.47510000      -3.49065000
H       12.20076000       5.02933000      -3.50546000
O       11.25611000       4.98801000      -3.33117000
H       11.12870000       4.03563000      -3.19643000
