6
Properties=species:S:1:pos:R:3 frame=T 36=T |=T Written=T by=T MDAnalysis=T XYZWriter=T (release=T 2.4.3)=T pbc="F F F"
H      -17.32003000      16.14117000     -17.68935000
O      -17.54154000      16.21751000     -16.74248000
H      -17.33897000      17.11660000     -16.50950000
H      -17.67676000      18.59404000     -19.57024000
O      -17.11978000      19.31402000     -19.21919000
H      -16.83941000      18.91268000     -18.39431000
