6
Properties=species:S:1:pos:R:3 frame=T 17=T |=T Written=T by=T MDAnalysis=T XYZWriter=T (release=T 2.4.3)=T pbc="F F F"
H       -6.33400000       0.96481000       9.11403000
O       -6.26489000       0.84679000       8.15605000
H       -6.95533000       1.44074000       7.83547000
H       -8.09509000       3.02813000       7.26204000
O       -8.00707000       2.99806000       6.30839000
H       -8.85921000       2.65063000       6.01742000
