6
Properties=species:S:1:pos:R:3 frame=T 45=T |=T Written=T by=T MDAnalysis=T XYZWriter=T (release=T 2.4.3)=T pbc="F F F"
H       -5.96498000      16.31135000      -1.65582000
O       -5.44417000      15.85256000      -2.33488000
H       -5.51231000      16.39606000      -3.12012000
H       -5.70979000      17.44250000      -0.16287000
O       -6.33687000      16.73657000       0.08509000
H       -7.14636000      17.06322000      -0.34874000
