6
Properties=species:S:1:pos:R:3 frame=T 16=T |=T Written=T by=T MDAnalysis=T XYZWriter=T (release=T 2.4.3)=T pbc="F F F"
H       -7.33099000      18.32122000      -3.71793000
O       -7.93372000      18.29293000      -2.96281000
H       -7.79260000      19.19457000      -2.63364000
H       -8.66460000      16.93875000      -1.72132000
O       -9.28998000      16.54208000      -1.08912000
H       -9.57572000      15.81053000      -1.64284000
