6
Properties=species:S:1:pos:R:3 frame=T 25=T |=T Written=T by=T MDAnalysis=T XYZWriter=T (release=T 2.4.3)=T pbc="F F F"
H       -5.04221000      10.99397000     -17.39035000
O       -5.95992000      11.31187000     -17.37551000
H       -6.42570000      10.64703000     -17.87509000
H       -3.80063000       8.96941000     -17.58377000
O       -3.54996000       9.54251000     -18.33757000
H       -4.10997000       9.17966000     -19.05380000
