6
Properties=species:S:1:pos:R:3 frame=T 16=T |=T Written=T by=T MDAnalysis=T XYZWriter=T (release=T 2.4.3)=T pbc="F F F"
H       10.05521000      11.74193000     -16.48636000
O       10.42321000      12.36988000     -17.12262000
H       10.55204000      13.14768000     -16.54634000
H       12.57983000      14.18914000     -16.67853000
O       13.01464000      13.33936000     -16.79354000
H       12.49325000      12.72225000     -16.25518000
