6
Properties=species:S:1:pos:R:3 frame=T 49=T |=T Written=T by=T MDAnalysis=T XYZWriter=T (release=T 2.4.3)=T pbc="F F F"
H       10.23784000       6.03229000       3.17433000
O        9.61412000       5.96377000       2.44364000
H       10.04344000       5.37118000       1.82255000
H       10.62131000       7.92595000       0.56274000
O       10.45741000       8.33634000       1.42667000
H       10.16489000       7.56594000       1.91698000
