6
Properties=species:S:1:pos:R:3 frame=T 45=T |=T Written=T by=T MDAnalysis=T XYZWriter=T (release=T 2.4.3)=T pbc="F F F"
H      -11.65045000       0.39670000      18.09513000
O      -11.13247000      -0.04731000      18.77682000
H      -10.26190000       0.40631000      18.69231000
H       -8.67440000       2.06868000      17.39954000
O       -9.47039000       2.54920000      17.72895000
H      -10.20439000       2.05015000      17.34789000
