6
Properties=species:S:1:pos:R:3 frame=T 42=T |=T Written=T by=T MDAnalysis=T XYZWriter=T (release=T 2.4.3)=T pbc="F F F"
H        9.85262000      14.58337000       8.36052000
O        9.62531000      14.45175000       7.44795000
H       10.05611000      13.61233000       7.19223000
H       10.37267000      15.19862000       6.14082000
O       10.94266000      15.62866000       5.51911000
H       11.75594000      15.73614000       6.05400000
