6
Properties=species:S:1:pos:R:3 frame=T 33=T |=T Written=T by=T MDAnalysis=T XYZWriter=T (release=T 2.4.3)=T pbc="F F F"
H       -5.88226000       5.34179000     -10.42559000
O       -5.45147000       6.07633000      -9.95336000
H       -6.04630000       6.19513000      -9.20227000
H       -6.53771000       7.12202000     -10.83281000
O       -7.08658000       7.86565000     -11.13695000
H       -7.62989000       7.49730000     -11.82708000
