6
Properties=species:S:1:pos:R:3 frame=T 3=T |=T Written=T by=T MDAnalysis=T XYZWriter=T (release=T 2.4.3)=T pbc="F F F"
H       16.18480000     -17.08385000      15.86597000
O       15.42712000     -17.30334000      15.33084000
H       15.35362000     -16.51321000      14.79030000
H       18.77273000     -17.88759000      15.28446000
O       18.14167000     -17.61846000      15.98955000
H       18.51990000     -18.04522000      16.80976000
