6
Properties=species:S:1:pos:R:3 frame=T 35=T |=T Written=T by=T MDAnalysis=T XYZWriter=T (release=T 2.4.3)=T pbc="F F F"
H       10.55187000       5.71335000     -18.11507000
O       10.66041000       4.96978000     -18.70474000
H       11.15820000       5.33373000     -19.45020000
H       13.09840000       3.84456000     -18.15577000
O       12.99817000       2.95953000     -18.54668000
H       12.04901000       2.87531000     -18.60978000
