6
Properties=species:S:1:pos:R:3 frame=T 35=T |=T Written=T by=T MDAnalysis=T XYZWriter=T (release=T 2.4.3)=T pbc="F F F"
H       18.90877000       3.58967000      -5.31183000
O       18.38382000       2.92325000      -5.73330000
H       18.88345000       2.13550000      -5.48863000
H       17.18792000       2.33862000      -7.05555000
O       17.35116000       2.27072000      -8.01413000
H       18.16401000       2.75531000      -8.07827000
