6
Properties=species:S:1:pos:R:3 frame=T 16=T |=T Written=T by=T MDAnalysis=T XYZWriter=T (release=T 2.4.3)=T pbc="F F F"
H      -17.41836000      15.28903000     -11.05952000
O      -18.18785000      15.85839000     -10.77049000
H      -17.96104000      16.75536000     -11.00132000
H      -16.28340000      13.75335000     -13.82578000
O      -16.43863000      14.42922000     -13.14901000
H      -17.38635000      14.47019000     -13.06305000
