6
Properties=species:S:1:pos:R:3 frame=T 29=T |=T Written=T by=T MDAnalysis=T XYZWriter=T (release=T 2.4.3)=T pbc="F F F"
H        6.03562000       2.41045000      18.16816000
O        6.78153000       2.87540000      18.58259000
H        6.53343000       3.81269000      18.62117000
H        8.46275000       4.02277000      18.08543000
O        9.29215000       3.65840000      18.49035000
H        9.01559000       2.75933000      18.65289000
