6
Properties=species:S:1:pos:R:3 frame=T 46=T |=T Written=T by=T MDAnalysis=T XYZWriter=T (release=T 2.4.3)=T pbc="F F F"
H      -11.86151000      -2.46051000       8.01376000
O      -12.11294000      -1.55059000       7.99630000
H      -12.49440000      -1.46898000       7.13623000
H      -12.48825000      -4.68156000       9.09152000
O      -12.72563000      -4.46482000       8.16857000
H      -13.56195000      -4.91847000       8.04950000
