6
Properties=species:S:1:pos:R:3 frame=T 10=T |=T Written=T by=T MDAnalysis=T XYZWriter=T (release=T 2.4.3)=T pbc="F F F"
H        2.27088000       7.79322000      -3.46660000
O        3.19426000       7.70032000      -3.72514000
H        3.26623000       8.19144000      -4.55689000
H        0.99585000       7.25184000      -1.96403000
O        1.06632000       8.10639000      -2.39754000
H        1.66923000       8.63050000      -1.85488000
