6
Properties=species:S:1:pos:R:3 frame=T 52=T |=T Written=T by=T MDAnalysis=T XYZWriter=T (release=T 2.4.3)=T pbc="F F F"
H       11.07576000       7.70735000       7.88757000
O       10.51627000       8.41150000       7.61884000
H       10.25143000       8.82336000       8.47163000
H       13.32439000       6.78525000       7.28150000
O       12.56769000       6.16148000       7.23739000
H       12.71042000       5.63884000       8.02941000
