6
Properties=species:S:1:pos:R:3 frame=T 0=T |=T Written=T by=T MDAnalysis=T XYZWriter=T (release=T 2.4.3)=T pbc="F F F"
H       14.22518000      11.79723000      -8.53052000
O       13.30827000      11.60804000      -8.41580000
H       13.25114000      10.64516000      -8.31165000
H       11.77758000      11.34672000      -6.27601000
O       12.39756000      11.95161000      -5.85182000
H       13.01471000      12.12335000      -6.59097000
