6
Properties=species:S:1:pos:R:3 frame=T 23=T |=T Written=T by=T MDAnalysis=T XYZWriter=T (release=T 2.4.3)=T pbc="F F F"
H        9.62805000      -1.72186000      -2.17659000
O        8.92504000      -1.38896000      -1.59945000
H        8.27527000      -2.08423000      -1.54771000
H       11.09617000      -3.77595000      -2.54530000
O       11.49637000      -2.89839000      -2.62356000
H       12.14594000      -2.86143000      -1.91871000
