6
Properties=species:S:1:pos:R:3 frame=T 52=T |=T Written=T by=T MDAnalysis=T XYZWriter=T (release=T 2.4.3)=T pbc="F F F"
H       10.78590000      15.36025000      -5.97151000
O       10.58923000      14.43850000      -5.70948000
H       10.37472000      14.06394000      -6.56726000
H       10.33109000      13.29666000      -4.10001000
O       10.43547000      13.38413000      -3.15624000
H       11.16370000      12.77710000      -3.00280000
