6
Properties=species:S:1:pos:R:3 frame=T 53=T |=T Written=T by=T MDAnalysis=T XYZWriter=T (release=T 2.4.3)=T pbc="F F F"
H      -16.18799000      16.15796000     -13.47205000
O      -15.77327000      15.58951000     -12.79624000
H      -14.84208000      15.81152000     -12.87455000
H      -13.00674000      16.55989000     -14.17205000
O      -13.17216000      17.07712000     -13.35289000
H      -13.88337000      17.66468000     -13.56542000
