6
Properties=species:S:1:pos:R:3 frame=T 3=T |=T Written=T by=T MDAnalysis=T XYZWriter=T (release=T 2.4.3)=T pbc="F F F"
H        6.25690000      18.67891000      12.99280000
O        5.58643000      18.91597000      12.33775000
H        4.84435000      19.12992000      12.92337000
H        7.14964000      19.35455000       9.46129000
O        6.84553000      18.51514000       9.75512000
H        6.26417000      18.70606000      10.46485000
