6
Properties=species:S:1:pos:R:3 frame=T 16=T |=T Written=T by=T MDAnalysis=T XYZWriter=T (release=T 2.4.3)=T pbc="F F F"
H      -16.16937000       8.46091000       8.58837000
O      -17.12738000       8.56841000       8.43018000
H      -17.16259000       9.31546000       7.83031000
H      -14.43677000       7.90099000       9.05292000
O      -14.50023000       8.66551000       8.42778000
H      -14.27654000       8.33912000       7.55179000
