6
Properties=species:S:1:pos:R:3 frame=T 17=T |=T Written=T by=T MDAnalysis=T XYZWriter=T (release=T 2.4.3)=T pbc="F F F"
H       15.46953000      16.42349000     -10.02235000
O       15.58550000      16.54164000     -10.97195000
H       16.34778000      17.10896000     -11.01374000
H       14.64390000      17.82908000      -8.69239000
O       14.95689000      17.01438000      -8.29346000
H       14.27353000      16.34604000      -8.44673000
