6
Properties=species:S:1:pos:R:3 frame=T 42=T |=T Written=T by=T MDAnalysis=T XYZWriter=T (release=T 2.4.3)=T pbc="F F F"
H        9.61458000      10.63207000     -13.41850000
O        9.56129000       9.80616000     -13.94327000
H        8.63088000       9.77442000     -14.25368000
H        8.75421000       9.47990000     -11.14125000
O        9.62373000       9.07362000     -11.11402000
H        9.95882000       9.20139000     -12.01098000
