6
Properties=species:S:1:pos:R:3 frame=T 49=T |=T Written=T by=T MDAnalysis=T XYZWriter=T (release=T 2.4.3)=T pbc="F F F"
H        3.09006000      17.46620000     -13.04200000
O        2.69097000      18.32685000     -12.83398000
H        1.73796000      18.13612000     -12.84805000
H        0.41212000      17.02164000     -12.34677000
O       -0.25890000      17.65434000     -12.65980000
H       -0.21505000      18.38998000     -12.00393000
