6
Properties=species:S:1:pos:R:3 frame=T 46=T |=T Written=T by=T MDAnalysis=T XYZWriter=T (release=T 2.4.3)=T pbc="F F F"
H       11.74834000       4.41353000      17.44868000
O       12.09227000       4.42873000      16.58067000
H       12.05623000       3.47613000      16.44069000
H       12.81474000       4.74550000      19.19364000
O       13.50663000       5.31111000      18.79912000
H       14.00607000       4.68928000      18.24451000
