6
Properties=species:S:1:pos:R:3 frame=T 13=T |=T Written=T by=T MDAnalysis=T XYZWriter=T (release=T 2.4.3)=T pbc="F F F"
H       11.59008000     -11.27558000       9.48242000
O       12.01969000     -11.11228000       8.66011000
H       12.92418000     -10.86951000       8.93128000
H       13.96939000     -13.51698000       9.06667000
O       13.68390000     -13.31816000       8.19530000
H       13.04482000     -12.58240000       8.27804000
