6
Properties=species:S:1:pos:R:3 frame=T 3=T |=T Written=T by=T MDAnalysis=T XYZWriter=T (release=T 2.4.3)=T pbc="F F F"
H       -9.67525000       5.72698000      -1.04788000
O       -9.84041000       6.06475000      -1.91323000
H       -9.43180000       6.95383000      -1.96423000
H       -9.00868000       7.17945000       0.70328000
O       -8.42479000       6.43566000       0.54689000
H       -8.78788000       5.70836000       1.09339000
