6
Properties=species:S:1:pos:R:3 frame=T 39=T |=T Written=T by=T MDAnalysis=T XYZWriter=T (release=T 2.4.3)=T pbc="F F F"
H        4.36660000     -18.12025000     -13.73159000
O        4.85950000     -18.02541000     -14.57297000
H        5.29671000     -18.87277000     -14.66715000
H        5.55263000     -15.46066000     -12.06833000
O        5.56930000     -16.40230000     -11.86459000
H        4.82256000     -16.73058000     -12.36502000
