6
Properties=species:S:1:pos:R:3 frame=T 0=T |=T Written=T by=T MDAnalysis=T XYZWriter=T (release=T 2.4.3)=T pbc="F F F"
H       13.85671000      16.50130000      -4.43937000
O       12.97159000      16.66113000      -4.10931000
H       12.39943000      16.32779000      -4.82652000
H       12.17079000      18.22469000      -4.23640000
O       11.35674000      18.76110000      -4.32364000
H       10.66503000      18.10771000      -4.43380000
