6
Properties=species:S:1:pos:R:3 frame=T 13=T |=T Written=T by=T MDAnalysis=T XYZWriter=T (release=T 2.4.3)=T pbc="F F F"
H       -8.77158000      -5.96260000     -14.82557000
O       -9.44221000      -5.74758000     -15.52010000
H      -10.23309000      -5.98554000     -15.03603000
H       -9.06960000      -4.39975000     -14.16626000
O       -8.80157000      -3.84196000     -13.42984000
H       -8.05629000      -3.34365000     -13.77504000
