6
Properties=species:S:1:pos:R:3 frame=T 11=T |=T Written=T by=T MDAnalysis=T XYZWriter=T (release=T 2.4.3)=T pbc="F F F"
H        4.91981000     -10.32814000     -14.32200000
O        4.80808000     -10.82029000     -13.46918000
H        3.87645000     -11.12571000     -13.51773000
H        5.07662000      -9.59173000     -12.33179000
O        5.08178000      -8.74709000     -11.85471000
H        4.38483000      -8.26594000     -12.28069000
