6
Properties=species:S:1:pos:R:3 frame=T 15=T |=T Written=T by=T MDAnalysis=T XYZWriter=T (release=T 2.4.3)=T pbc="F F F"
H       -6.13024000       4.79924000     -18.84215000
O       -5.89340000       5.45189000     -18.19489000
H       -5.30172000       6.07089000     -18.62222000
H       -8.34300000       6.07088000     -17.73600000
O       -8.98411000       6.35118000     -17.05927000
H       -9.51373000       5.56975000     -16.86946000
