6
Properties=species:S:1:pos:R:3 frame=T 11=T |=T Written=T by=T MDAnalysis=T XYZWriter=T (release=T 2.4.3)=T pbc="F F F"
H      -15.69141000      -8.35057000     -16.01839000
O      -15.60366000      -9.21022000     -15.59657000
H      -16.30181000      -9.21023000     -14.91340000
H      -13.80049000      -9.39732000     -14.44138000
O      -13.02384000      -9.88238000     -14.80218000
H      -12.29631000      -9.61170000     -14.18581000
