6
Properties=species:S:1:pos:R:3 frame=T 39=T |=T Written=T by=T MDAnalysis=T XYZWriter=T (release=T 2.4.3)=T pbc="F F F"
H        3.64589000     -11.34611000      18.00126000
O        4.42273000     -10.86509000      18.28180000
H        4.69930000     -10.43428000      17.46981000
H        1.59846000     -12.04737000      16.91448000
O        1.47098000     -12.02563000      17.85658000
H        1.47498000     -12.89151000      18.23989000
