6
Properties=species:S:1:pos:R:3 frame=T 32=T |=T Written=T by=T MDAnalysis=T XYZWriter=T (release=T 2.4.3)=T pbc="F F F"
H       10.91061000     -15.69451000      -2.37199000
O       11.57124000     -16.42321000      -2.40650000
H       11.27667000     -17.02203000      -1.71176000
H        9.82631000     -18.19389000      -0.11811000
O       10.16322000     -17.65585000       0.59350000
H       11.09131000     -17.56829000       0.36019000
