6
Properties=species:S:1:pos:R:3 frame=T 5=T |=T Written=T by=T MDAnalysis=T XYZWriter=T (release=T 2.4.3)=T pbc="F F F"
H        9.75955000     -12.03737000      16.90481000
O        9.41034000     -12.87767000      17.24807000
H        9.68677000     -13.52083000      16.58149000
H        7.16352000     -13.52845000      16.60224000
O        6.56841000     -12.78654000      16.70653000
H        7.17333000     -12.07831000      16.93509000
