6
Properties=species:S:1:pos:R:3 frame=T 30=T |=T Written=T by=T MDAnalysis=T XYZWriter=T (release=T 2.4.3)=T pbc="F F F"
H        7.50971000      11.93173000      11.88243000
O        8.41041000      11.67658000      11.78880000
H        8.75872000      12.27376000      11.10996000
H        6.48547000      11.26529000       9.90669000
O        6.43572000      12.20637000      10.13460000
H        5.51052000      12.31492000      10.32941000
