6
Properties=species:S:1:pos:R:3 frame=T 42=T |=T Written=T by=T MDAnalysis=T XYZWriter=T (release=T 2.4.3)=T pbc="F F F"
H      -11.61501000       2.43820000       3.21675000
O      -11.00619000       1.65913000       3.12458000
H      -10.55509000       1.77347000       2.26823000
H      -13.92015000       1.23747000       1.93140000
O      -13.24510000       0.57437000       2.12031000
H      -12.55535000       1.07741000       2.55472000
