6
Properties=species:S:1:pos:R:3 frame=T 48=T |=T Written=T by=T MDAnalysis=T XYZWriter=T (release=T 2.4.3)=T pbc="F F F"
H       -0.97847000      18.73597000     -10.25572000
O       -1.82086000      18.33201000     -10.53784000
H       -1.65608000      18.02274000     -11.40770000
H       -1.17136000      17.14625000     -13.01000000
O       -0.80198000      17.98985000     -13.16481000
H       -1.56026000      18.52959000     -13.42027000
