6
Properties=species:S:1:pos:R:3 frame=T 16=T |=T Written=T by=T MDAnalysis=T XYZWriter=T (release=T 2.4.3)=T pbc="F F F"
H      -15.87480000       3.17468000      -6.57541000
O      -16.41159000       3.88707000      -6.93954000
H      -16.40136000       4.54744000      -6.24402000
H      -17.91405000       2.01926000      -9.49349000
O      -18.08920000       2.05581000      -8.53014000
H      -17.47948000       2.70144000      -8.20688000
