6
Properties=species:S:1:pos:R:3 frame=T 41=T |=T Written=T by=T MDAnalysis=T XYZWriter=T (release=T 2.4.3)=T pbc="F F F"
H        3.59852000      10.32920000       8.60908000
O        3.44460000      11.24234000       8.45916000
H        3.49876000      11.59633000       9.34054000
H        3.68169000       8.35061000       9.51572000
O        4.44174000       8.36942000       8.90737000
H        4.98928000       9.07967000       9.28887000
