6
Properties=species:S:1:pos:R:3 frame=T 28=T |=T Written=T by=T MDAnalysis=T XYZWriter=T (release=T 2.4.3)=T pbc="F F F"
H      -12.07184000      -8.14871000      -6.99938000
O      -11.80717000      -7.52975000      -7.68823000
H      -12.66183000      -7.18265000      -7.96292000
H      -10.63956000      -9.26726000      -8.46893000
O      -10.51315000     -10.15721000      -8.76110000
H      -10.20523000      -9.97024000      -9.63887000
