6
Properties=species:S:1:pos:R:3 frame=T 17=T |=T Written=T by=T MDAnalysis=T XYZWriter=T (release=T 2.4.3)=T pbc="F F F"
H        2.64544000      18.79830000      12.01206000
O        2.34495000      19.12027000      11.16650000
H        1.39595000      19.21322000      11.31097000
H        0.94137000      16.23680000      10.79276000
O        1.61713000      16.66442000      10.23978000
H        1.73029000      17.52449000      10.63915000
