6
Properties=species:S:1:pos:R:3 frame=T 42=T |=T Written=T by=T MDAnalysis=T XYZWriter=T (release=T 2.4.3)=T pbc="F F F"
H       -6.39988000       3.03272000      15.40974000
O       -6.50153000       3.03004000      16.37066000
H       -5.56212000       2.88359000      16.58901000
H       -7.99262000       2.83568000      19.50446000
O       -7.45068000       2.31921000      18.87987000
H       -7.20793000       2.91894000      18.19391000
