6
Properties=species:S:1:pos:R:3 frame=T 8=T |=T Written=T by=T MDAnalysis=T XYZWriter=T (release=T 2.4.3)=T pbc="F F F"
H       -1.53341000      16.46582000      16.29867000
O       -2.24376000      16.34838000      16.94342000
H       -2.67790000      17.20329000      16.94127000
H       -3.63435000      15.64788000      16.17522000
O       -4.32295000      15.34651000      15.54490000
H       -3.72341000      15.02997000      14.84564000
