6
Properties=species:S:1:pos:R:3 frame=T 16=T |=T Written=T by=T MDAnalysis=T XYZWriter=T (release=T 2.4.3)=T pbc="F F F"
H       -3.86428000     -15.73749000      -0.56788000
O       -3.58414000     -16.62821000      -0.82134000
H       -4.27413000     -17.23085000      -0.53104000
H       -2.64087000     -16.37919000       0.76344000
O       -2.24790000     -16.16754000       1.63038000
H       -2.98435000     -16.26920000       2.21438000
