6
Properties=species:S:1:pos:R:3 frame=T 25=T |=T Written=T by=T MDAnalysis=T XYZWriter=T (release=T 2.4.3)=T pbc="F F F"
H       -8.71613000      17.89527000     -12.80133000
O       -8.99452000      18.29315000     -11.96794000
H       -9.92268000      18.12295000     -11.94457000
H       -8.59129000      18.82830000     -14.20942000
O       -8.48520000      17.96170000     -14.61078000
H       -7.59204000      17.98105000     -14.94630000
