6
Properties=species:S:1:pos:R:3 frame=T 54=T |=T Written=T by=T MDAnalysis=T XYZWriter=T (release=T 2.4.3)=T pbc="F F F"
H        7.75366000       3.32369000      17.97516000
O        7.51413000       2.96110000      18.82068000
H        6.92933000       3.62173000      19.19277000
H        5.96171000       2.08308000      18.13592000
O        5.08049000       1.96813000      17.74760000
H        4.53490000       2.56567000      18.26071000
