6
Properties=species:S:1:pos:R:3 frame=T 26=T |=T Written=T by=T MDAnalysis=T XYZWriter=T (release=T 2.4.3)=T pbc="F F F"
H      -11.01321000     -10.04973000      11.43709000
O      -11.21508000     -10.74435000      12.08174000
H      -11.13376000     -10.27348000      12.91842000
H       -9.45325000      -8.62615000      14.22050000
O      -10.28215000      -8.72900000      13.71301000
H       -9.91317000      -8.65477000      12.84475000
