6
Properties=species:S:1:pos:R:3 frame=T 10=T |=T Written=T by=T MDAnalysis=T XYZWriter=T (release=T 2.4.3)=T pbc="F F F"
H      -16.51417000      11.89910000     -18.19775000
O      -15.80986000      11.24415000     -18.25437000
H      -15.53632000      11.38883000     -19.19030000
H      -13.06843000      12.57382000     -18.14979000
O      -13.86436000      13.01211000     -17.81595000
H      -14.51116000      12.32479000     -17.77007000
