6
Properties=species:S:1:pos:R:3 frame=T 18=T |=T Written=T by=T MDAnalysis=T XYZWriter=T (release=T 2.4.3)=T pbc="F F F"
H       12.09704000      -9.42998000      19.60137000
O       12.62467000      -8.82952000      19.07173000
H       12.32821000      -8.95691000      18.16353000
H       13.53148000     -11.23358000      16.88960000
O       13.00565000     -11.79582000      17.47229000
H       12.34562000     -11.14486000      17.78358000
