6
Properties=species:S:1:pos:R:3 frame=T 20=T |=T Written=T by=T MDAnalysis=T XYZWriter=T (release=T 2.4.3)=T pbc="F F F"
H        8.52679000      -7.77108000     -12.06715000
O        9.42820000      -7.41616000     -12.10269000
H        9.82988000      -7.92578000     -11.39246000
H       10.53990000      -6.28028000     -13.17351000
O       11.11556000      -5.51756000     -13.36887000
H       11.41777000      -5.75540000     -14.23112000
