6
Properties=species:S:1:pos:R:3 frame=T 0=T |=T Written=T by=T MDAnalysis=T XYZWriter=T (release=T 2.4.3)=T pbc="F F F"
H        5.74642000      13.48173000      -5.89403000
O        5.22679000      14.18923000      -5.50434000
H        4.87543000      14.64936000      -6.26745000
H        7.69310000      15.62299000      -4.71368000
O        7.00505000      16.05874000      -5.23469000
H        6.28741000      15.37991000      -5.20310000
