6
Properties=species:S:1:pos:R:3 frame=T 34=T |=T Written=T by=T MDAnalysis=T XYZWriter=T (release=T 2.4.3)=T pbc="F F F"
H       -5.98353000      15.74931000      15.51733000
O       -6.82590000      16.09083000      15.22864000
H       -6.81982000      16.99504000      15.50397000
H       -5.68103000      16.49170000      13.86699000
O       -4.87941000      16.83020000      13.45448000
H       -5.25029000      17.20204000      12.66286000
