6
Properties=species:S:1:pos:R:3 frame=T 24=T |=T Written=T by=T MDAnalysis=T XYZWriter=T (release=T 2.4.3)=T pbc="F F F"
H       14.63153000       5.81493000     -12.30244000
O       14.70271000       6.78544000     -12.44494000
H       14.83105000       6.80961000     -13.40620000
H       13.82331000       8.43542000     -11.53874000
O       13.86877000       9.08030000     -10.78338000
H       13.97834000       8.50400000     -10.02893000
