6
Properties=species:S:1:pos:R:3 frame=T 34=T |=T Written=T by=T MDAnalysis=T XYZWriter=T (release=T 2.4.3)=T pbc="F F F"
H        4.53087000      -5.63046000     -15.11983000
O        4.68904000      -6.45607000     -15.55335000
H        5.63630000      -6.55288000     -15.35240000
H        4.17270000      -4.10554000     -17.22559000
O        4.95895000      -4.48555000     -17.68804000
H        5.19067000      -5.24949000     -17.16799000
