6
Properties=species:S:1:pos:R:3 frame=T 1=T |=T Written=T by=T MDAnalysis=T XYZWriter=T (release=T 2.4.3)=T pbc="F F F"
H       -3.99394000      -2.15535000      -1.36662000
O       -3.34336000      -1.84359000      -2.02002000
H       -3.77184000      -1.87406000      -2.89445000
H       -4.35423000      -0.28391000      -2.00483000
O       -4.77612000       0.56706000      -1.81733000
H       -5.68799000       0.42100000      -2.13500000
