6
Properties=species:S:1:pos:R:3 frame=T 10=T |=T Written=T by=T MDAnalysis=T XYZWriter=T (release=T 2.4.3)=T pbc="F F F"
H        8.38801000      -6.29984000     -17.93187000
O        8.27097000      -7.09907000     -17.38522000
H        7.76090000      -6.78751000     -16.64504000
H       10.11959000      -5.13683000     -17.89725000
O       10.99314000      -5.42820000     -17.54740000
H       11.57026000      -5.49363000     -18.30487000
