6
Properties=species:S:1:pos:R:3 frame=T 28=T |=T Written=T by=T MDAnalysis=T XYZWriter=T (release=T 2.4.3)=T pbc="F F F"
H        5.78547000      -2.88604000       9.44576000
O        5.63792000      -2.66354000       8.51513000
H        5.04293000      -1.91283000       8.56696000
H        7.14548000      -2.19338000       9.37676000
O        7.87954000      -1.96366000       9.95023000
H        8.65531000      -1.85046000       9.37831000
