6
Properties=species:S:1:pos:R:3 frame=T 33=T |=T Written=T by=T MDAnalysis=T XYZWriter=T (release=T 2.4.3)=T pbc="F F F"
H        2.27273000      -4.88657000       2.24448000
O        2.63223000      -4.76004000       1.36588000
H        3.01270000      -5.57941000       1.11853000
H        1.68189000      -2.63800000       4.24513000
O        1.46591000      -3.58856000       4.16761000
H        2.30195000      -4.01413000       3.92775000
