6
Properties=species:S:1:pos:R:3 frame=T 0=T |=T Written=T by=T MDAnalysis=T XYZWriter=T (release=T 2.4.3)=T pbc="F F F"
H      -18.24335000      17.32120000       3.94036000
O      -18.32718000      18.12296000       3.36036000
H      -17.63938000      17.98946000       2.70931000
H      -15.31157000      17.46079000       1.46284000
O      -16.02837000      16.96192000       1.91093000
H      -15.79814000      16.04168000       1.70678000
