6
Properties=species:S:1:pos:R:3 frame=T 36=T |=T Written=T by=T MDAnalysis=T XYZWriter=T (release=T 2.4.3)=T pbc="F F F"
H       -3.76949000      -5.58360000       9.36530000
O       -4.00498000      -5.01253000      10.10522000
H       -4.81496000      -5.41107000      10.42145000
H       -1.65148000      -7.01015000       8.63113000
O       -2.58716000      -6.84039000       8.40608000
H       -2.65676000      -7.07969000       7.46688000
