6
Properties=species:S:1:pos:R:3 frame=T 13=T |=T Written=T by=T MDAnalysis=T XYZWriter=T (release=T 2.4.3)=T pbc="F F F"
H      -16.33947000      -3.83576000     -11.31569000
O      -17.30555000      -3.64612000     -11.16330000
H      -17.77436000      -4.30550000     -11.67898000
H      -14.96065000      -1.75869000     -12.53163000
O      -15.74761000      -2.13709000     -12.92084000
H      -16.16222000      -2.63530000     -12.23389000
