6
Properties=species:S:1:pos:R:3 frame=T 36=T |=T Written=T by=T MDAnalysis=T XYZWriter=T (release=T 2.4.3)=T pbc="F F F"
H        4.28974000       0.40842000      16.36672000
O        4.76248000       0.63054000      15.57552000
H        5.15982000       1.46790000      15.76662000
H        5.10544000       2.57111000      18.56773000
O        4.48134000       1.83746000      18.35228000
H        3.69911000       2.33741000      18.08141000
