6
Properties=species:S:1:pos:R:3 frame=T 54=T |=T Written=T by=T MDAnalysis=T XYZWriter=T (release=T 2.4.3)=T pbc="F F F"
H       -0.43774000      -4.13624000      -1.91374000
O        0.46968000      -4.06365000      -2.21540000
H        0.87332000      -4.84407000      -1.74784000
H        0.12710000      -4.33082000      -5.43384000
O        0.99393000      -4.61406000      -5.18506000
H        1.08846000      -4.24732000      -4.29052000
