6
Properties=species:S:1:pos:R:3 frame=T 5=T |=T Written=T by=T MDAnalysis=T XYZWriter=T (release=T 2.4.3)=T pbc="F F F"
H      -15.93513000      16.16547000      -7.47848000
O      -16.20720000      16.92761000      -6.94630000
H      -17.12706000      17.05141000      -7.14787000
H      -15.71432000      14.91590000      -8.55331000
O      -14.84549000      14.92982000      -8.11646000
H      -14.93020000      14.20355000      -7.49549000
