6
Properties=species:S:1:pos:R:3 frame=T 16=T |=T Written=T by=T MDAnalysis=T XYZWriter=T (release=T 2.4.3)=T pbc="F F F"
H      -13.37354000       5.64725000     -14.92310000
O      -12.58178000       5.92207000     -14.39693000
H      -12.85828000       6.71109000     -13.91987000
H      -11.66818000       7.11257000     -17.67743000
O      -12.52748000       7.18277000     -17.23739000
H      -12.25179000       7.50952000     -16.37997000
