6
Properties=species:S:1:pos:R:3 frame=T 7=T |=T Written=T by=T MDAnalysis=T XYZWriter=T (release=T 2.4.3)=T pbc="F F F"
H        9.90035000      13.45087000     -12.65245000
O       10.23877000      13.84615000     -13.43699000
H       11.19848000      13.78908000     -13.34997000
H       13.05985000      13.14683000     -13.61683000
O       12.83127000      13.99114000     -13.18981000
H       12.78560000      14.60639000     -13.93431000
