6
Properties=species:S:1:pos:R:3 frame=T 21=T |=T Written=T by=T MDAnalysis=T XYZWriter=T (release=T 2.4.3)=T pbc="F F F"
H       13.70789000     -15.21597000      17.06951000
O       14.58282000     -14.94919000      17.36876000
H       14.53633000     -13.97189000      17.33467000
H       14.52065000     -11.38557000      17.51495000
O       14.46385000     -11.98468000      18.29594000
H       15.39066000     -11.93661000      18.65685000
