6
Properties=species:S:1:pos:R:3 frame=T 19=T |=T Written=T by=T MDAnalysis=T XYZWriter=T (release=T 2.4.3)=T pbc="F F F"
H       -9.80331000       7.34663000      -4.52512000
O      -10.00436000       6.62343000      -3.90283000
H       -9.11736000       6.48798000      -3.48958000
H       -7.45065000       8.58272000      -5.31733000
O       -8.17373000       7.97098000      -5.43495000
H       -7.74025000       7.10569000      -5.25444000
