6
Properties=species:S:1:pos:R:3 frame=T 8=T |=T Written=T by=T MDAnalysis=T XYZWriter=T (release=T 2.4.3)=T pbc="F F F"
H       -5.52641000       0.96697000     -16.23195000
O       -5.41249000       0.02775000     -16.40848000
H       -4.46826000      -0.11892000     -16.44320000
H       -1.65214000      -1.06841000     -16.71940000
O       -2.47912000      -0.60018000     -16.67747000
H       -2.22498000       0.29098000     -16.96945000
