6
Properties=species:S:1:pos:R:3 frame=T 42=T |=T Written=T by=T MDAnalysis=T XYZWriter=T (release=T 2.4.3)=T pbc="F F F"
H      -11.16402000      -2.40135000      -6.70739000
O      -11.93155000      -2.98275000      -6.71309000
H      -12.68464000      -2.48728000      -7.04203000
H      -11.62362000      -3.70111000      -4.63041000
O      -11.92236000      -3.76449000      -3.72135000
H      -12.35096000      -2.92650000      -3.52038000
