6
Properties=species:S:1:pos:R:3 frame=T 29=T |=T Written=T by=T MDAnalysis=T XYZWriter=T (release=T 2.4.3)=T pbc="F F F"
H        1.07911000      14.46154000       0.78617000
O        0.96845000      15.22115000       0.26145000
H        0.65328000      15.83432000       0.94069000
H       -0.85340000      13.50406000       0.01167000
O       -1.45046000      12.77793000       0.27046000
H       -0.88967000      12.20855000       0.79521000
