6
Properties=species:S:1:pos:R:3 frame=T 32=T |=T Written=T by=T MDAnalysis=T XYZWriter=T (release=T 2.4.3)=T pbc="F F F"
H        8.44085000      -3.15552000     -18.76594000
O        8.19651000      -2.59117000     -18.03223000
H        9.04191000      -2.34287000     -17.66269000
H        9.97403000      -5.22571000     -19.09945000
O       10.02693000      -5.59249000     -18.21441000
H        9.87447000      -6.52096000     -18.34828000
