6
Properties=species:S:1:pos:R:3 frame=T 53=T |=T Written=T by=T MDAnalysis=T XYZWriter=T (release=T 2.4.3)=T pbc="F F F"
H       -9.81073000      14.29350000      16.82277000
O      -10.20671000      14.97951000      17.29888000
H      -10.70414000      14.53077000      17.96663000
H      -10.26047000      11.29746000      14.67100000
O      -10.83314000      12.06629000      14.98304000
H      -10.57682000      12.11296000      15.89753000
