6
Properties=species:S:1:pos:R:3 frame=T 51=T |=T Written=T by=T MDAnalysis=T XYZWriter=T (release=T 2.4.3)=T pbc="F F F"
H       -2.31061000     -10.95344000     -14.90786000
O       -2.81092000     -11.77068000     -14.85174000
H       -3.73621000     -11.56670000     -14.68040000
H       -3.91796000      -9.98908000     -13.00666000
O       -3.91294000     -10.79822000     -12.49986000
H       -3.28314000     -11.35376000     -13.04437000
