6
Properties=species:S:1:pos:R:3 frame=T 18=T |=T Written=T by=T MDAnalysis=T XYZWriter=T (release=T 2.4.3)=T pbc="F F F"
H       18.30350000     -12.33033000       7.08921000
O       17.67830000     -13.02967000       6.93779000
H       16.79904000     -12.62398000       6.83612000
H       18.13608000      -9.68356000       8.56125000
O       18.57480000      -9.41858000       7.72900000
H       19.24471000     -10.09400000       7.58541000
