6
Properties=species:S:1:pos:R:3 frame=T 2=T |=T Written=T by=T MDAnalysis=T XYZWriter=T (release=T 2.4.3)=T pbc="F F F"
H       17.41137000      16.41538000      12.11269000
O       17.58610000      17.18392000      12.68127000
H       16.69054000      17.49882000      12.90903000
H       17.95452000      14.09252000      10.28834000
O       17.65611000      14.16997000      11.20281000
H       16.80467000      13.70785000      11.21662000
