6
Properties=species:S:1:pos:R:3 frame=T 22=T |=T Written=T by=T MDAnalysis=T XYZWriter=T (release=T 2.4.3)=T pbc="F F F"
H        1.47516000      -0.54466000      10.25995000
O        1.33900000      -1.39966000      10.65703000
H        1.93318000      -1.94287000      10.11386000
H        3.50841000      -0.45906000       8.87922000
O        3.81967000      -1.32766000       8.65204000
H        4.48730000      -1.56867000       9.28429000
