6
Properties=species:S:1:pos:R:3 frame=T 27=T |=T Written=T by=T MDAnalysis=T XYZWriter=T (release=T 2.4.3)=T pbc="F F F"
H      -13.30167000      17.37823000      -2.74087000
O      -12.63963000      18.07961000      -2.81202000
H      -13.20905000      18.84318000      -2.67892000
H      -14.36097000      14.92726000      -2.74434000
O      -13.65371000      15.50370000      -2.43151000
H      -13.29667000      15.03337000      -1.69010000
