6
Properties=species:S:1:pos:R:3 frame=T 9=T |=T Written=T by=T MDAnalysis=T XYZWriter=T (release=T 2.4.3)=T pbc="F F F"
H        7.69534000      -9.55579000     -10.92116000
O        6.76916000      -9.54189000     -11.19972000
H        6.44047000     -10.34991000     -10.78650000
H        3.83426000     -11.91790000     -10.81352000
O        4.69491000     -11.56417000     -10.56718000
H        5.08320000     -11.29263000     -11.39832000
