6
Properties=species:S:1:pos:R:3 frame=T 25=T |=T Written=T by=T MDAnalysis=T XYZWriter=T (release=T 2.4.3)=T pbc="F F F"
H        9.51615000      -7.06478000     -15.13858000
O       10.41227000      -7.33160000     -14.89615000
H       10.27789000      -7.43132000     -13.95107000
H       10.81100000      -8.61445000     -16.44977000
O       10.99286000      -9.05199000     -17.31391000
H       11.93400000      -9.20812000     -17.27408000
