6
Properties=species:S:1:pos:R:3 frame=T 16=T |=T Written=T by=T MDAnalysis=T XYZWriter=T (release=T 2.4.3)=T pbc="F F F"
H      -12.79302000      15.13960000       0.55995000
O      -11.96098000      15.62278000       0.74043000
H      -12.18735000      16.55867000       0.88916000
H      -12.32743000      18.02887000       3.12226000
O      -11.81696000      17.98817000       2.30522000
H      -11.84772000      18.89417000       1.95606000
