6
Properties=species:S:1:pos:R:3 frame=T 16=T |=T Written=T by=T MDAnalysis=T XYZWriter=T (release=T 2.4.3)=T pbc="F F F"
H       -7.08724000      17.59451000      -7.38707000
O       -6.86319000      17.52123000      -8.34745000
H       -7.71662000      17.54367000      -8.83016000
H       -7.29301000      16.78066000      -5.36499000
O       -7.48090000      15.99968000      -5.87294000
H       -8.15055000      16.29530000      -6.49226000
