6
Properties=species:S:1:pos:R:3 frame=T 45=T |=T Written=T by=T MDAnalysis=T XYZWriter=T (release=T 2.4.3)=T pbc="F F F"
H        6.03318000       0.78099000      -6.67813000
O        5.86573000       1.05136000      -5.73675000
H        6.74239000       1.03782000      -5.37038000
H        8.86569000       1.73990000      -5.02365000
O        8.71794000       1.66751000      -4.07813000
H        8.45311000       2.58596000      -3.87503000
