6
Properties=species:S:1:pos:R:3 frame=T 20=T |=T Written=T by=T MDAnalysis=T XYZWriter=T (release=T 2.4.3)=T pbc="F F F"
H      -14.50973000      11.81535000      -0.54605000
O      -14.32195000      12.27774000       0.27531000
H      -14.39240000      13.21302000       0.03087000
H      -12.40739000      11.44830000      -1.11232000
O      -11.65598000      11.75202000      -1.59887000
H      -10.98223000      11.79197000      -0.85855000
