6
Properties=species:S:1:pos:R:3 frame=T 1=T |=T Written=T by=T MDAnalysis=T XYZWriter=T (release=T 2.4.3)=T pbc="F F F"
H       14.58870000       9.75101000       9.10140000
O       13.95893000       9.26854000       8.55338000
H       14.38625000       8.42939000       8.34935000
H       10.74802000       9.90571000       7.85464000
O       11.45968000      10.56499000       7.96021000
H       12.28993000      10.01800000       7.85345000
