6
Properties=species:S:1:pos:R:3 frame=T 40=T |=T Written=T by=T MDAnalysis=T XYZWriter=T (release=T 2.4.3)=T pbc="F F F"
H       -5.68524000     -17.49101000      17.28536000
O       -6.63348000     -17.36732000      17.27894000
H       -6.80681000     -17.30337000      18.20366000
H       -7.83797000     -16.16266000      16.10453000
O       -8.27240000     -15.49673000      15.57309000
H       -8.22256000     -14.73033000      16.15624000
