6
Properties=species:S:1:pos:R:3 frame=T 51=T |=T Written=T by=T MDAnalysis=T XYZWriter=T (release=T 2.4.3)=T pbc="F F F"
H       -6.01228000     -18.08995000      -7.38539000
O       -5.41395000     -18.76233000      -7.72989000
H       -4.63908000     -18.20529000      -7.97340000
H       -4.83565000     -15.24037000      -6.31080000
O       -5.58769000     -15.78232000      -6.53043000
H       -5.76919000     -16.38429000      -5.77048000
