6
Properties=species:S:1:pos:R:3 frame=T 20=T |=T Written=T by=T MDAnalysis=T XYZWriter=T (release=T 2.4.3)=T pbc="F F F"
H       16.54504000     -13.88599000      -5.01680000
O       16.90101000     -13.60161000      -5.87721000
H       17.64463000     -14.22120000      -5.92672000
H       17.83685000     -15.74552000      -7.08222000
O       17.21415000     -16.41516000      -7.41266000
H       17.71703000     -16.60946000      -8.21312000
