6
Properties=species:S:1:pos:R:3 frame=T 19=T |=T Written=T by=T MDAnalysis=T XYZWriter=T (release=T 2.4.3)=T pbc="F F F"
H        8.82387000       9.48036000      -9.15930000
O        9.60272000       9.23077000      -8.64277000
H        9.94630000       8.48447000      -9.08395000
H       12.27283000       8.74732000     -10.68004000
O       12.34741000       7.96300000     -10.14841000
H       11.49913000       7.52359000     -10.15626000
