6
Properties=species:S:1:pos:R:3 frame=T 46=T |=T Written=T by=T MDAnalysis=T XYZWriter=T (release=T 2.4.3)=T pbc="F F F"
H        9.25791000      -6.16224000       8.91952000
O        9.38444000      -6.09252000       9.85214000
H        9.46578000      -7.00269000      10.13038000
H        8.87076000      -9.66081000       9.65418000
O        9.56853000      -9.02383000       9.62126000
H       10.36037000      -9.60371000       9.62373000
