6
Properties=species:S:1:pos:R:3 frame=T 3=T |=T Written=T by=T MDAnalysis=T XYZWriter=T (release=T 2.4.3)=T pbc="F F F"
H       17.88576000      -0.41500000      10.65310000
O       16.95705000      -0.69910000      10.76923000
H       17.04590000      -1.64892000      10.72949000
H       17.16343000       0.26064000      12.57023000
O       17.42491000       0.14152000      13.47635000
H       18.23733000      -0.36932000      13.33564000
