6
Properties=species:S:1:pos:R:3 frame=T 39=T |=T Written=T by=T MDAnalysis=T XYZWriter=T (release=T 2.4.3)=T pbc="F F F"
H        7.97526000      12.32599000      -2.25958000
O        8.39041000      11.95136000      -3.04699000
H        7.76340000      12.29957000      -3.71926000
H        6.32210000      13.32407000      -0.67157000
O        7.17092000      13.43611000      -1.15346000
H        6.86265000      13.82750000      -1.97840000
