6
Properties=species:S:1:pos:R:3 frame=T 32=T |=T Written=T by=T MDAnalysis=T XYZWriter=T (release=T 2.4.3)=T pbc="F F F"
H        0.56951000      16.81629000       0.20190000
O        1.12140000      16.03289000       0.12844000
H        1.79883000      16.12397000       0.83273000
H       -0.68430000      18.92244000      -0.41800000
O        0.20175000      18.59152000      -0.59468000
H        0.53721000      19.26293000      -1.24800000
