6
Properties=species:S:1:pos:R:3 frame=T 12=T |=T Written=T by=T MDAnalysis=T XYZWriter=T (release=T 2.4.3)=T pbc="F F F"
H      -11.01008000       3.51573000      16.10104000
O      -11.50216000       4.27137000      16.34643000
H      -12.13292000       3.92322000      16.98864000
H      -11.63859000       4.46835000      19.15858000
O      -11.22155000       5.34644000      19.08110000
H      -11.05189000       5.40645000      18.14421000
