6
Properties=species:S:1:pos:R:3 frame=T 21=T |=T Written=T by=T MDAnalysis=T XYZWriter=T (release=T 2.4.3)=T pbc="F F F"
H        7.37889000     -18.54475000       5.03880000
O        7.78397000     -18.29235000       4.21088000
H        7.07517000     -18.28391000       3.56236000
H        5.10946000     -17.91942000       3.20243000
O        5.61416000     -18.16410000       2.43448000
H        6.06155000     -17.33843000       2.18485000
