6
Properties=species:S:1:pos:R:3 frame=T 39=T |=T Written=T by=T MDAnalysis=T XYZWriter=T (release=T 2.4.3)=T pbc="F F F"
H      -13.12356000       6.04348000       8.82784000
O      -12.82600000       5.30218000       9.38117000
H      -12.94864000       4.52312000       8.79822000
H      -10.18463000       4.76689000       9.18947000
O      -10.30424000       4.31666000      10.04674000
H      -11.12574000       4.68394000      10.44155000
