6
Properties=species:S:1:pos:R:3 frame=T 15=T |=T Written=T by=T MDAnalysis=T XYZWriter=T (release=T 2.4.3)=T pbc="F F F"
H        0.04576000       6.95873000       8.35349000
O        0.55093000       6.82078000       9.14942000
H        1.10617000       6.04425000       8.90156000
H       -2.09557000       7.39338000       6.90788000
O       -1.71288000       7.53190000       7.79298000
H       -2.41469000       8.01412000       8.23648000
