6
Properties=species:S:1:pos:R:3 frame=T 21=T |=T Written=T by=T MDAnalysis=T XYZWriter=T (release=T 2.4.3)=T pbc="F F F"
H       17.60172000     -10.81043000      -1.38047000
O       18.55510000     -10.74777000      -1.62148000
H       18.53224000     -10.95169000      -2.58562000
H       16.01435000      -8.98482000      -3.05384000
O       16.71733000      -8.42575000      -2.70456000
H       17.23215000      -9.04056000      -2.15468000
