6
Properties=species:S:1:pos:R:3 frame=T 33=T |=T Written=T by=T MDAnalysis=T XYZWriter=T (release=T 2.4.3)=T pbc="F F F"
H       -6.21967000       8.44173000     -17.31963000
O       -5.35506000       8.08098000     -17.04622000
H       -5.53411000       7.78980000     -16.13081000
H       -5.11843000       5.66550000     -18.16005000
O       -4.28818000       5.79582000     -17.71312000
H       -4.38119000       6.68153000     -17.32197000
