6
Properties=species:S:1:pos:R:3 frame=T 21=T |=T Written=T by=T MDAnalysis=T XYZWriter=T (release=T 2.4.3)=T pbc="F F F"
H      -12.78808000      -8.55147000     -16.80089000
O      -12.15441000      -7.92732000     -16.46664000
H      -11.50070000      -8.56253000     -16.13974000
H      -13.29042000     -11.30126000     -16.61889000
O      -12.84677000     -10.95083000     -15.83001000
H      -13.45797000     -10.24952000     -15.51157000
