6
Properties=species:S:1:pos:R:3 frame=T 51=T |=T Written=T by=T MDAnalysis=T XYZWriter=T (release=T 2.4.3)=T pbc="F F F"
H        6.43146000      -4.75353000      12.09231000
O        6.17675000      -3.99999000      11.55192000
H        6.38407000      -4.32841000      10.65495000
H        4.73724000      -5.87197000      11.50952000
O        4.51039000      -6.80139000      11.63160000
H        5.26210000      -7.22819000      12.06911000
