6
Properties=species:S:1:pos:R:3 frame=T 7=T |=T Written=T by=T MDAnalysis=T XYZWriter=T (release=T 2.4.3)=T pbc="F F F"
H       14.98188000      -0.34452000      -8.02898000
O       14.59888000       0.09447000      -8.84436000
H       14.72652000      -0.62105000      -9.47831000
H       16.04997000      -2.80229000      -7.11352000
O       16.42207000      -1.95547000      -7.39900000
H       16.08804000      -1.84305000      -8.28701000
