6
Properties=species:S:1:pos:R:3 frame=T 48=T |=T Written=T by=T MDAnalysis=T XYZWriter=T (release=T 2.4.3)=T pbc="F F F"
H       -2.54365000     -17.81458000     -14.92352000
O       -2.71157000     -18.20682000     -14.05691000
H       -3.49917000     -17.79880000     -13.71442000
H       -6.19782000     -17.51818000     -13.25115000
O       -5.61746000     -18.26699000     -13.17520000
H       -5.82091000     -18.80625000     -13.96885000
