6
Properties=species:S:1:pos:R:3 frame=T 30=T |=T Written=T by=T MDAnalysis=T XYZWriter=T (release=T 2.4.3)=T pbc="F F F"
H        7.81450000      17.57635000       3.02581000
O        7.69487000      17.94065000       2.13640000
H        8.07137000      17.29580000       1.50395000
H       10.23229000      15.93707000       0.17100000
O        9.70136000      16.07545000       0.98704000
H       10.12231000      15.64731000       1.71919000
