6
Properties=species:S:1:pos:R:3 frame=T 37=T |=T Written=T by=T MDAnalysis=T XYZWriter=T (release=T 2.4.3)=T pbc="F F F"
H       12.55960000     -17.43630000     -14.28108000
O       12.38809000     -18.36275000     -14.52729000
H       11.54725000     -18.56457000     -14.07505000
H       14.31042000     -16.04196000     -14.29185000
O       13.54573000     -16.11950000     -13.70122000
H       13.82541000     -16.91929000     -13.19420000
