6
Properties=species:S:1:pos:R:3 frame=T 14=T |=T Written=T by=T MDAnalysis=T XYZWriter=T (release=T 2.4.3)=T pbc="F F F"
H       10.43089000      12.12909000      17.38586000
O        9.91744000      12.48276000      18.15906000
H       10.41149000      12.18043000      18.91731000
H        8.97920000      15.48950000      17.62414000
O        8.56055000      14.94746000      18.32527000
H        9.29982000      14.45718000      18.72560000
