6
Properties=species:S:1:pos:R:3 frame=T 8=T |=T Written=T by=T MDAnalysis=T XYZWriter=T (release=T 2.4.3)=T pbc="F F F"
H       -9.37414000      11.20865000      -9.29942000
O       -8.94179000      11.23307000      -8.43614000
H       -8.82529000      10.29740000      -8.20368000
H       -7.92821000      11.46812000     -11.81998000
O       -7.40062000      10.70959000     -11.52272000
H       -7.66666000      10.62097000     -10.61325000
