6
Properties=species:S:1:pos:R:3 frame=T 1=T |=T Written=T by=T MDAnalysis=T XYZWriter=T (release=T 2.4.3)=T pbc="F F F"
H        5.90933000     -18.23426000      -0.20703000
O        5.55431000     -18.87644000      -0.82925000
H        6.33129000     -19.15082000      -1.31549000
H        4.34808000     -16.89985000       0.41384000
O        4.71922000     -16.15591000      -0.03091000
H        5.16213000     -16.57714000      -0.74922000
