6
Properties=species:S:1:pos:R:3 frame=T 48=T |=T Written=T by=T MDAnalysis=T XYZWriter=T (release=T 2.4.3)=T pbc="F F F"
H       10.10394000     -13.59780000       8.06790000
O       10.60885000     -13.43327000       8.85230000
H       11.29568000     -12.74265000       8.66996000
H       12.45376000     -14.69641000      11.44629000
O       12.57481000     -14.95593000      10.51255000
H       11.71101000     -14.77193000      10.12069000
