6
Properties=species:S:1:pos:R:3 frame=T 13=T |=T Written=T by=T MDAnalysis=T XYZWriter=T (release=T 2.4.3)=T pbc="F F F"
H        9.14590000      13.65854000       8.31979000
O        8.82196000      14.00707000       7.47911000
H        9.62780000      14.01822000       6.95327000
H        8.05685000      12.90258000      10.39688000
O        8.72269000      12.37240000       9.95119000
H        8.31891000      11.52233000       9.91683000
