6
Properties=species:S:1:pos:R:3 frame=T 13=T |=T Written=T by=T MDAnalysis=T XYZWriter=T (release=T 2.4.3)=T pbc="F F F"
H       14.71124000       2.38095000       1.19096000
O       13.82436000       2.39030000       0.79376000
H       13.89698000       1.73409000       0.08990000
H       12.60716000       0.62231000       1.63308000
O       11.92189000      -0.06236000       1.74719000
H       12.39340000      -0.68197000       2.31322000
