6
Properties=species:S:1:pos:R:3 frame=T 24=T |=T Written=T by=T MDAnalysis=T XYZWriter=T (release=T 2.4.3)=T pbc="F F F"
H      -14.07782000      -2.29905000      -9.65082000
O      -13.35042000      -2.90626000      -9.56336000
H      -12.73951000      -2.38624000      -9.01713000
H      -13.27455000      -2.52791000     -11.56188000
O      -12.98643000      -1.91673000     -12.26600000
H      -12.33931000      -1.37554000     -11.82186000
