6
Properties=species:S:1:pos:R:3 frame=T 41=T |=T Written=T by=T MDAnalysis=T XYZWriter=T (release=T 2.4.3)=T pbc="F F F"
H       15.91348000      -9.71401000       2.00835000
O       16.25708000      -8.85049000       2.21509000
H       16.57661000      -8.52374000       1.36736000
H       14.02726000      -7.15729000       2.70675000
O       13.79085000      -7.83916000       2.09668000
H       14.53752000      -8.42409000       2.10372000
