6
Properties=species:S:1:pos:R:3 frame=T 8=T |=T Written=T by=T MDAnalysis=T XYZWriter=T (release=T 2.4.3)=T pbc="F F F"
H      -18.07670000      -6.07739000       5.77097000
O      -18.37904000      -5.45211000       5.12071000
H      -17.56647000      -5.16937000       4.66941000
H      -18.03000000      -6.76785000       8.10469000
O      -17.51411000      -6.66774000       7.28972000
H      -17.29260000      -5.72953000       7.28272000
