6
Properties=species:S:1:pos:R:3 frame=T 53=T |=T Written=T by=T MDAnalysis=T XYZWriter=T (release=T 2.4.3)=T pbc="F F F"
H       13.05069000       1.23133000       8.69317000
O       13.62490000       0.47251000       8.84271000
H       13.06982000      -0.29171000       8.99422000
H       12.14749000      -2.98253000       8.30594000
O       12.40653000      -2.54821000       9.12915000
H       11.73634000      -1.83606000       9.24255000
