6
Properties=species:S:1:pos:R:3 frame=T 14=T |=T Written=T by=T MDAnalysis=T XYZWriter=T (release=T 2.4.3)=T pbc="F F F"
H      -15.82793000      15.83250000     -11.21480000
O      -16.09108000      16.21478000     -12.05354000
H      -16.34883000      15.40074000     -12.52456000
H      -16.45161000      12.80469000     -11.69636000
O      -16.12595000      13.53703000     -12.23304000
H      -15.17080000      13.42840000     -12.28417000
