6
Properties=species:S:1:pos:R:3 frame=T 46=T |=T Written=T by=T MDAnalysis=T XYZWriter=T (release=T 2.4.3)=T pbc="F F F"
H       18.90632000      -5.45653000      -8.10063000
O       19.18211000      -6.15335000      -7.50615000
H       18.35348000      -6.57158000      -7.21748000
H       15.24574000      -4.89388000      -8.72215000
O       15.84593000      -4.59593000      -8.05892000
H       16.58964000      -4.18780000      -8.52862000
