6
Properties=species:S:1:pos:R:3 frame=T 29=T |=T Written=T by=T MDAnalysis=T XYZWriter=T (release=T 2.4.3)=T pbc="F F F"
H       18.78642000      -2.89956000      -4.42569000
O       18.27079000      -3.00941000      -3.62012000
H       18.40517000      -3.98541000      -3.47547000
H       16.78895000      -4.20207000      -5.11476000
O       17.29696000      -4.83317000      -5.68923000
H       18.16234000      -4.89151000      -5.28906000
