6
Properties=species:S:1:pos:R:3 frame=T 13=T |=T Written=T by=T MDAnalysis=T XYZWriter=T (release=T 2.4.3)=T pbc="F F F"
H      -10.93689000      -7.94267000       3.72221000
O      -10.49349000      -7.37288000       4.39524000
H      -10.28821000      -6.55104000       3.91641000
H      -12.13057000      -5.03417000       3.78097000
O      -12.66943000      -5.82956000       3.97462000
H      -11.99786000      -6.50427000       4.10903000
