6
Properties=species:S:1:pos:R:3 frame=T 18=T |=T Written=T by=T MDAnalysis=T XYZWriter=T (release=T 2.4.3)=T pbc="F F F"
H        3.26729000     -18.41070000     -17.28590000
O        2.88473000     -17.73957000     -17.85906000
H        3.17460000     -16.92398000     -17.48684000
H        3.32216000     -15.36825000     -15.32031000
O        2.65375000     -14.79023000     -15.73317000
H        1.82051000     -15.05408000     -15.31043000
