6
Properties=species:S:1:pos:R:3 frame=T 36=T |=T Written=T by=T MDAnalysis=T XYZWriter=T (release=T 2.4.3)=T pbc="F F F"
H        2.16924000      -7.13300000      10.54321000
O        1.42302000      -7.67006000      10.89940000
H        1.86400000      -8.32938000      11.43097000
H        4.05836000      -4.86793000      10.35745000
O        3.13104000      -5.05665000      10.14202000
H        2.88474000      -4.37387000       9.48913000
