6
Properties=species:S:1:pos:R:3 frame=T 37=T |=T Written=T by=T MDAnalysis=T XYZWriter=T (release=T 2.4.3)=T pbc="F F F"
H        8.56219000      -6.39368000      10.41683000
O        9.19994000      -6.15784000       9.74767000
H        9.45559000      -5.26918000       9.95418000
H        8.58788000      -7.42581000      11.57408000
O        7.63303000      -7.38594000      11.58729000
H        7.48292000      -6.40210000      11.61364000
