6
Properties=species:S:1:pos:R:3 frame=T 13=T |=T Written=T by=T MDAnalysis=T XYZWriter=T (release=T 2.4.3)=T pbc="F F F"
H       17.65693000     -11.95902000     -18.78494000
O       17.13258000     -12.62155000     -18.24721000
H       17.76620000     -12.99770000     -17.60818000
H       14.73998000      -9.86577000     -18.72493000
O       14.52772000     -10.81480000     -18.92033000
H       14.86508000     -11.27457000     -18.15370000
