6
Properties=species:S:1:pos:R:3 frame=T 26=T |=T Written=T by=T MDAnalysis=T XYZWriter=T (release=T 2.4.3)=T pbc="F F F"
H       -7.82305000     -18.48628000      14.01553000
O       -8.51513000     -17.93467000      14.41896000
H       -9.30392000     -18.43204000      14.21105000
H       -8.28419000     -17.17349000      11.46225000
O       -8.57374000     -16.31196000      11.83527000
H       -8.77120000     -16.46180000      12.74650000
