6
Properties=species:S:1:pos:R:3 frame=T 46=T |=T Written=T by=T MDAnalysis=T XYZWriter=T (release=T 2.4.3)=T pbc="F F F"
H        7.80484000     -15.35639000      14.12234000
O        7.20538000     -16.00969000      14.50450000
H        6.33847000     -15.64988000      14.30979000
H        6.30452000     -15.81951000      16.53867000
O        6.09747000     -16.04352000      17.45691000
H        6.10678000     -15.18845000      17.85717000
