6
Properties=species:S:1:pos:R:3 frame=T 19=T |=T Written=T by=T MDAnalysis=T XYZWriter=T (release=T 2.4.3)=T pbc="F F F"
H        3.36599000      11.66806000     -13.35777000
O        2.49826000      12.04992000     -13.30131000
H        2.22315000      11.76969000     -12.43109000
H        3.40501000       9.39959000     -13.21304000
O        4.26215000       9.81779000     -13.02118000
H        4.41250000       9.54677000     -12.09373000
