6
Properties=species:S:1:pos:R:3 frame=T 2=T |=T Written=T by=T MDAnalysis=T XYZWriter=T (release=T 2.4.3)=T pbc="F F F"
H      -13.72157000      12.82194000      17.17570000
O      -12.95317000      13.21584000      17.58553000
H      -13.27631000      13.72171000      18.32275000
H      -12.06656000      13.93695000      16.46220000
O      -11.71815000      14.65711000      15.93934000
H      -12.45894000      15.09451000      15.52047000
