6
Properties=species:S:1:pos:R:3 frame=T 47=T |=T Written=T by=T MDAnalysis=T XYZWriter=T (release=T 2.4.3)=T pbc="F F F"
H        0.27456000     -14.73888000       8.49536000
O        0.25502000     -13.83138000       8.78174000
H       -0.00562000     -13.85508000       9.73250000
H       -1.15876000     -13.92058000       7.73749000
O       -1.71239000     -14.12191000       6.97923000
H       -2.28901000     -14.82370000       7.34042000
