6
Properties=species:S:1:pos:R:3 frame=T 23=T |=T Written=T by=T MDAnalysis=T XYZWriter=T (release=T 2.4.3)=T pbc="F F F"
H        4.89038000      12.78533000       2.51942000
O        5.21124000      12.41563000       1.68824000
H        5.20568000      11.46384000       1.85765000
H        5.91292000       9.99810000       2.53076000
O        4.94237000       9.94990000       2.59940000
H        4.72679000       9.26709000       1.94935000
