6
Properties=species:S:1:pos:R:3 frame=T 48=T |=T Written=T by=T MDAnalysis=T XYZWriter=T (release=T 2.4.3)=T pbc="F F F"
H        1.12640000     -13.51325000     -11.37474000
O        1.57410000     -13.51125000     -10.51906000
H        1.28539000     -14.33953000     -10.13205000
H       -0.50882000     -14.94846000     -12.86574000
O       -0.27301000     -14.00439000     -12.92793000
H       -0.19504000     -13.79853000     -13.86230000
