6
Properties=species:S:1:pos:R:3 frame=T 46=T |=T Written=T by=T MDAnalysis=T XYZWriter=T (release=T 2.4.3)=T pbc="F F F"
H       -9.81790000      13.25034000     -11.30388000
O       -9.94298000      14.12006000     -10.89181000
H       -9.16431000      14.57581000     -11.24623000
H      -10.99159000      17.33711000      -9.92287000
O      -10.25965000      16.75389000      -9.63827000
H      -10.04378000      16.23820000     -10.43744000
