6
Properties=species:S:1:pos:R:3 frame=T 9=T |=T Written=T by=T MDAnalysis=T XYZWriter=T (release=T 2.4.3)=T pbc="F F F"
H      -14.74805000      -2.73143000       3.01653000
O      -15.35058000      -2.61423000       2.28883000
H      -15.46511000      -3.50077000       1.95473000
H      -12.17950000      -1.69597000       2.69270000
O      -12.58584000      -1.18680000       1.99892000
H      -13.32982000      -0.82570000       2.45938000
