6
Properties=species:S:1:pos:R:3 frame=T 24=T |=T Written=T by=T MDAnalysis=T XYZWriter=T (release=T 2.4.3)=T pbc="F F F"
H      -17.78926000     -12.04943000      11.84418000
O      -17.14415000     -11.84877000      11.15844000
H      -16.29034000     -12.02478000      11.57858000
H      -16.10571000     -12.62894000      14.08159000
O      -15.58580000     -12.57389000      13.28716000
H      -15.38865000     -13.47256000      13.10228000
