6
Properties=species:S:1:pos:R:3 frame=T 37=T |=T Written=T by=T MDAnalysis=T XYZWriter=T (release=T 2.4.3)=T pbc="F F F"
H      -16.11804000      16.44485000      17.97860000
O      -16.51729000      16.90888000      18.73208000
H      -15.96345000      16.60600000      19.43507000
H      -18.89704000      16.38706000      17.74746000
O      -18.54207000      15.49081000      17.59690000
H      -17.70214000      15.49231000      17.98960000
