6
Properties=species:S:1:pos:R:3 frame=T 2=T |=T Written=T by=T MDAnalysis=T XYZWriter=T (release=T 2.4.3)=T pbc="F F F"
H       19.16186000       5.21072000       6.50446000
O       18.33708000       4.88815000       6.94890000
H       18.17154000       4.06143000       6.50384000
H       16.31770000       5.91764000       5.33292000
O       16.02111000       6.37680000       6.12766000
H       16.25166000       5.75254000       6.82534000
