6
Properties=species:S:1:pos:R:3 frame=T 41=T |=T Written=T by=T MDAnalysis=T XYZWriter=T (release=T 2.4.3)=T pbc="F F F"
H      -17.00252000      -7.22463000      -4.30020000
O      -17.68552000      -6.82923000      -3.74486000
H      -18.45698000      -7.34648000      -3.99589000
H      -18.16002000      -6.73953000      -6.19090000
O      -18.63890000      -6.23375000      -6.86547000
H      -19.13954000      -5.58027000      -6.36904000
