6
Properties=species:S:1:pos:R:3 frame=T 34=T |=T Written=T by=T MDAnalysis=T XYZWriter=T (release=T 2.4.3)=T pbc="F F F"
H       -8.86967000      -3.02542000       3.03364000
O       -8.06639000      -2.64434000       2.64531000
H       -8.07310000      -1.75430000       3.01520000
H       -6.61929000      -4.54882000       1.19202000
O       -6.03715000      -3.83772000       0.86063000
H       -6.44220000      -3.06868000       1.26780000
