6
Properties=species:S:1:pos:R:3 frame=T 20=T |=T Written=T by=T MDAnalysis=T XYZWriter=T (release=T 2.4.3)=T pbc="F F F"
H       17.09866000       3.21661000     -15.45723000
O       17.68068000       3.76000000     -16.00229000
H       18.45319000       3.95365000     -15.47674000
H       15.28257000       5.83791000     -13.88411000
O       16.22783000       5.74387000     -14.12539000
H       16.45682000       4.84353000     -13.81646000
