6
Properties=species:S:1:pos:R:3 frame=T 37=T |=T Written=T by=T MDAnalysis=T XYZWriter=T (release=T 2.4.3)=T pbc="F F F"
H        4.59737000     -12.38201000      17.68179000
O        3.82704000     -12.62722000      18.16689000
H        3.38357000     -11.77918000      18.25997000
H        2.42678000     -14.17306000      17.56050000
O        2.50047000     -15.02839000      17.15790000
H        2.54625000     -14.84791000      16.21476000
