6
Properties=species:S:1:pos:R:3 frame=T 48=T |=T Written=T by=T MDAnalysis=T XYZWriter=T (release=T 2.4.3)=T pbc="F F F"
H        1.49763000     -12.70306000      -3.89082000
O        0.87899000     -11.96060000      -3.78821000
H        1.37662000     -11.26174000      -4.20854000
H        0.32416000     -14.02226000      -5.60076000
O       -0.33394000     -14.23538000      -4.91450000
H       -0.15237000     -13.57873000      -4.23197000
