6
Properties=species:S:1:pos:R:3 frame=T 42=T |=T Written=T by=T MDAnalysis=T XYZWriter=T (release=T 2.4.3)=T pbc="F F F"
H        5.91407000     -12.63309000      11.32619000
O        5.06538000     -12.32425000      11.64346000
H        4.59774000     -12.29710000      10.80525000
H        2.34211000     -12.94212000      13.71770000
O        2.91616000     -13.34285000      13.08294000
H        3.72238000     -12.79108000      13.14133000
