6
Properties=species:S:1:pos:R:3 frame=T 28=T |=T Written=T by=T MDAnalysis=T XYZWriter=T (release=T 2.4.3)=T pbc="F F F"
H       14.18796000     -14.24273000       6.97907000
O       13.41492000     -14.55210000       6.48593000
H       13.63161000     -14.32521000       5.55323000
H       10.91292000     -15.57286000       8.53085000
O       11.15598000     -15.47357000       7.59616000
H       12.05911000     -15.21987000       7.70861000
