6
Properties=species:S:1:pos:R:3 frame=T 5=T |=T Written=T by=T MDAnalysis=T XYZWriter=T (release=T 2.4.3)=T pbc="F F F"
H      -14.24059000      -9.24987000      14.48571000
O      -14.76076000      -9.91791000      14.02638000
H      -15.65000000      -9.58697000      14.18546000
H      -15.57821000      -8.06996000      11.91196000
O      -15.31613000      -8.80715000      11.38615000
H      -15.17482000      -9.45740000      12.09894000
