6
Properties=species:S:1:pos:R:3 frame=T 7=T |=T Written=T by=T MDAnalysis=T XYZWriter=T (release=T 2.4.3)=T pbc="F F F"
H       19.24207000     -18.60925000       3.56823000
O       18.92159000     -18.61574000       4.45166000
H       18.31426000     -19.36310000       4.40093000
H       18.39936000     -17.98672000       6.64523000
O       17.94753000     -17.18150000       6.93503000
H       17.99874000     -16.64952000       6.13204000
