6
Properties=species:S:1:pos:R:3 frame=T 23=T |=T Written=T by=T MDAnalysis=T XYZWriter=T (release=T 2.4.3)=T pbc="F F F"
H       10.58248000       6.56527000       6.60983000
O       11.49870000       6.26346000       6.54446000
H       11.93303000       7.02860000       6.17368000
H        8.98885000       6.61350000       5.45939000
O        9.03167000       7.28553000       6.16404000
H        9.08369000       8.16081000       5.71574000
