6
Properties=species:S:1:pos:R:3 frame=T 47=T |=T Written=T by=T MDAnalysis=T XYZWriter=T (release=T 2.4.3)=T pbc="F F F"
H      -13.86175000     -11.88072000       3.86390000
O      -13.07137000     -12.39904000       3.90635000
H      -13.39822000     -13.30332000       3.84121000
H      -12.55977000     -15.36597000       3.52545000
O      -13.54315000     -15.33728000       3.66957000
H      -13.83969000     -16.11947000       3.21418000
