6
Properties=species:S:1:pos:R:3 frame=T 50=T |=T Written=T by=T MDAnalysis=T XYZWriter=T (release=T 2.4.3)=T pbc="F F F"
H      -15.63026000     -17.29597000      -9.40625000
O      -15.15007000     -16.76443000     -10.04369000
H      -15.78573000     -16.35033000     -10.66268000
H      -14.69210000     -15.37643000      -7.46911000
O      -15.17079000     -14.88987000      -8.13305000
H      -15.08001000     -15.41171000      -8.91552000
