6
Properties=species:S:1:pos:R:3 frame=T 50=T |=T Written=T by=T MDAnalysis=T XYZWriter=T (release=T 2.4.3)=T pbc="F F F"
H       16.91016000      18.44064000      13.40987000
O       16.88911000      18.61165000      12.43994000
H       16.05255000      18.26424000      12.11528000
H       16.34476000      17.40708000       9.77151000
O       16.50904000      16.85328000      10.53320000
H       17.18110000      17.35135000      11.01094000
