6
Properties=species:S:1:pos:R:3 frame=T 6=T |=T Written=T by=T MDAnalysis=T XYZWriter=T (release=T 2.4.3)=T pbc="F F F"
H      -10.26021000      17.66541000     -10.27411000
O      -10.88295000      17.76033000      -9.56241000
H      -11.63406000      18.06653000     -10.05990000
H      -12.98097000      17.57626000     -11.02600000
O      -13.49944000      18.12585000     -10.42420000
H      -13.82502000      17.53588000      -9.71867000
