6
Properties=species:S:1:pos:R:3 frame=T 30=T |=T Written=T by=T MDAnalysis=T XYZWriter=T (release=T 2.4.3)=T pbc="F F F"
H       14.38047000      10.14617000      16.55171000
O       13.83152000      10.64404000      15.94347000
H       13.10581000      11.03817000      16.45496000
H       13.51296000       9.86857000      14.03487000
O       13.33027000       9.04114000      13.64424000
H       12.42528000       9.16624000      13.25652000
