6
Properties=species:S:1:pos:R:3 frame=T 16=T |=T Written=T by=T MDAnalysis=T XYZWriter=T (release=T 2.4.3)=T pbc="F F F"
H        6.13337000      15.18271000       8.60693000
O        5.58819000      15.05441000       7.78980000
H        4.91402000      15.72231000       7.84262000
H        4.08566000      14.23051000       8.43097000
O        3.37118000      13.58645000       8.33575000
H        3.76928000      12.91600000       7.76323000
