6
Properties=species:S:1:pos:R:3 frame=T 51=T |=T Written=T by=T MDAnalysis=T XYZWriter=T (release=T 2.4.3)=T pbc="F F F"
H      -19.05821000     -18.69690000       2.04742000
O      -18.48121000     -17.92591000       2.13633000
H      -18.05880000     -17.77465000       1.26368000
H      -17.88177000     -16.42890000       4.54386000
O      -17.56531000     -15.85216000       3.86041000
H      -18.20629000     -16.01934000       3.14602000
