6
Properties=species:S:1:pos:R:3 frame=T 4=T |=T Written=T by=T MDAnalysis=T XYZWriter=T (release=T 2.4.3)=T pbc="F F F"
H        4.60455000      13.72871000       3.28039000
O        5.40834000      13.76240000       2.77512000
H        6.10385000      13.85130000       3.43722000
H        8.42574000      13.80785000       4.23405000
O        7.72623000      14.48488000       4.20219000
H        8.20504000      15.22095000       4.58203000
