6
Properties=species:S:1:pos:R:3 frame=T 41=T |=T Written=T by=T MDAnalysis=T XYZWriter=T (release=T 2.4.3)=T pbc="F F F"
H       -7.19288000       8.46597000       2.99217000
O       -6.24920000       8.51170000       3.12091000
H       -6.08756000       9.48080000       3.12580000
H       -4.03768000      10.06410000       3.45871000
O       -4.82088000      10.62646000       3.28425000
H       -5.27356000      10.71027000       4.15331000
