6
Properties=species:S:1:pos:R:3 frame=T 39=T |=T Written=T by=T MDAnalysis=T XYZWriter=T (release=T 2.4.3)=T pbc="F F F"
H        9.56934000      -2.11139000       8.99576000
O       10.16882000      -2.89015000       9.03673000
H       11.01034000      -2.45512000       9.15221000
H        7.82980000      -1.69724000      10.64002000
O        8.14642000      -1.20884000       9.89676000
H        9.05348000      -0.98555000      10.18303000
