6
Properties=species:S:1:pos:R:3 frame=T 10=T |=T Written=T by=T MDAnalysis=T XYZWriter=T (release=T 2.4.3)=T pbc="F F F"
H       11.91725000     -13.52322000      12.02709000
O       11.53829000     -13.86993000      12.83188000
H       10.83016000     -14.48815000      12.55193000
H       13.24157000     -15.32498000      13.50807000
O       14.15616000     -15.53520000      13.27775000
H       14.40858000     -14.93802000      12.60508000
