6
Properties=species:S:1:pos:R:3 frame=T 32=T |=T Written=T by=T MDAnalysis=T XYZWriter=T (release=T 2.4.3)=T pbc="F F F"
H        0.76675000     -15.69306000      11.35238000
O        1.35336000     -15.39889000      12.07310000
H        1.96845000     -14.83612000      11.55548000
H       -0.86268000     -14.64293000      10.54807000
O       -1.45504000     -14.18076000      11.17405000
H       -1.80852000     -13.41209000      10.72618000
