6
Properties=species:S:1:pos:R:3 frame=T 28=T |=T Written=T by=T MDAnalysis=T XYZWriter=T (release=T 2.4.3)=T pbc="F F F"
H       14.27609000      -8.85322000      10.19873000
O       15.05460000      -9.36727000       9.85351000
H       15.83360000      -8.80995000      10.07135000
H       15.53046000      -7.18611000       7.54966000
O       14.64922000      -6.87574000       7.82169000
H       14.54710000      -7.37970000       8.66312000
