6
Properties=species:S:1:pos:R:3 frame=T 25=T |=T Written=T by=T MDAnalysis=T XYZWriter=T (release=T 2.4.3)=T pbc="F F F"
H       17.54867000      -8.10250000      15.33920000
O       17.75969000      -8.72596000      16.02715000
H       17.78822000      -8.18515000      16.81896000
H       15.07334000      -7.38129000      17.48459000
O       14.94206000      -8.07546000      16.81847000
H       15.78483000      -8.12564000      16.34357000
