6
Properties=species:S:1:pos:R:3 frame=T 31=T |=T Written=T by=T MDAnalysis=T XYZWriter=T (release=T 2.4.3)=T pbc="F F F"
H      -16.11963000       2.64425000      -7.52550000
O      -16.83078000       3.29217000      -7.40803000
H      -17.59101000       2.66221000      -7.48623000
H      -16.15017000       3.00556000     -10.50575000
O      -16.60969000       3.71474000     -10.08454000
H      -16.69592000       3.37537000      -9.18960000
