6
Properties=species:S:1:pos:R:3 frame=T 21=T |=T Written=T by=T MDAnalysis=T XYZWriter=T (release=T 2.4.3)=T pbc="F F F"
H      -14.92791000     -11.05437000       4.08946000
O      -14.28861000     -11.06695000       3.35155000
H      -13.50416000     -11.42424000       3.75471000
H      -13.53128000      -9.50771000       3.88009000
O      -13.09762000      -8.76768000       4.30206000
H      -12.22090000      -8.82987000       3.94025000
