6
Properties=species:S:1:pos:R:3 frame=T 19=T |=T Written=T by=T MDAnalysis=T XYZWriter=T (release=T 2.4.3)=T pbc="F F F"
H        4.36606000      -4.68453000       7.91249000
O        4.32834000      -5.48362000       7.37788000
H        4.98901000      -5.99326000       7.82954000
H        7.13661000      -6.37737000       8.16499000
O        6.53601000      -6.77459000       8.83214000
H        6.39162000      -6.02857000       9.41914000
