6
Properties=species:S:1:pos:R:3 frame=T 1=T |=T Written=T by=T MDAnalysis=T XYZWriter=T (release=T 2.4.3)=T pbc="F F F"
H      -17.95926000      14.24103000     -18.98384000
O      -18.91727000      14.17546000     -19.07892000
H      -19.25338000      13.95981000     -18.17057000
H      -18.31802000      13.19469000     -15.85183000
O      -17.39656000      13.49376000     -15.79888000
H      -17.03837000      12.96386000     -15.08841000
