6
Properties=species:S:1:pos:R:3 frame=T 12=T |=T Written=T by=T MDAnalysis=T XYZWriter=T (release=T 2.4.3)=T pbc="F F F"
H      -18.44621000      -7.38045000      -4.80034000
O      -19.24345000      -7.93001000      -4.81938000
H      -19.05030000      -8.58079000      -4.12990000
H      -16.97341000     -11.65619000      -3.77265000
O      -16.90411000     -10.96744000      -4.44899000
H      -17.32475000     -10.19205000      -4.01050000
