6
Properties=species:S:1:pos:R:3 frame=T 40=T |=T Written=T by=T MDAnalysis=T XYZWriter=T (release=T 2.4.3)=T pbc="F F F"
H       12.43761000     -14.85812000      13.85570000
O       12.74951000     -15.71137000      13.54948000
H       13.64696000     -15.48623000      13.23372000
H       10.75275000     -12.08450000      14.87946000
O       11.07137000     -13.00454000      14.69460000
H       11.72101000     -13.11161000      15.36160000
