6
Properties=species:S:1:pos:R:3 frame=T 6=T |=T Written=T by=T MDAnalysis=T XYZWriter=T (release=T 2.4.3)=T pbc="F F F"
H        2.76215000      -3.37130000       4.63944000
O        2.51669000      -2.89391000       5.42488000
H        3.24235000      -2.25984000       5.45739000
H        5.48777000      -2.71077000       4.80634000
O        4.84384000      -2.01200000       4.58888000
H        4.34251000      -2.38712000       3.82848000
