6
Properties=species:S:1:pos:R:3 frame=T 28=T |=T Written=T by=T MDAnalysis=T XYZWriter=T (release=T 2.4.3)=T pbc="F F F"
H      -13.90745000      18.48985000      -8.79203000
O      -14.10695000      18.42534000      -9.72887000
H      -14.84961000      19.05824000      -9.73934000
H      -17.72752000      18.16780000      -9.34729000
O      -18.00996000      19.09379000      -9.40201000
H      -17.25627000      19.52287000      -9.82637000
