6
Properties=species:S:1:pos:R:3 frame=T 26=T |=T Written=T by=T MDAnalysis=T XYZWriter=T (release=T 2.4.3)=T pbc="F F F"
H       -2.54188000      19.04756000       0.39418000
O       -1.73240000      19.06991000       0.91340000
H       -1.92452000      18.54816000       1.70577000
H       -1.47054000      15.79389000       0.49869000
O       -0.97125000      16.53948000       0.11524000
H       -1.41624000      17.28069000       0.56663000
