6
Properties=species:S:1:pos:R:3 frame=T 2=T |=T Written=T by=T MDAnalysis=T XYZWriter=T (release=T 2.4.3)=T pbc="F F F"
H       -3.49990000      -5.21566000      -4.90881000
O       -2.77769000      -5.86058000      -4.81456000
H       -3.08053000      -6.50518000      -4.15360000
H       -4.24452000      -7.83468000      -3.98094000
O       -3.56935000      -7.75440000      -3.29853000
H       -3.08403000      -8.56936000      -3.30128000
