6
Properties=species:S:1:pos:R:3 frame=T 19=T |=T Written=T by=T MDAnalysis=T XYZWriter=T (release=T 2.4.3)=T pbc="F F F"
H       -0.52021000      14.98463000      11.49622000
O       -0.75645000      15.73484000      12.06556000
H       -0.81975000      15.28435000      12.91427000
H       -0.78151000      17.37810000      13.34908000
O       -0.46935000      17.65675000      14.24077000
H       -0.65796000      18.61583000      14.20276000
