6
Properties=species:S:1:pos:R:3 frame=T 6=T |=T Written=T by=T MDAnalysis=T XYZWriter=T (release=T 2.4.3)=T pbc="F F F"
H       -7.47725000      17.36239000       1.29934000
O       -7.84277000      17.56039000       2.18184000
H       -7.25574000      18.23186000       2.54266000
H       -8.41728000      19.59366000      -0.28177000
O       -7.60214000      19.04050000      -0.34847000
H       -7.83482000      18.32862000      -0.95153000
