6
Properties=species:S:1:pos:R:3 frame=T 54=T |=T Written=T by=T MDAnalysis=T XYZWriter=T (release=T 2.4.3)=T pbc="F F F"
H       -3.37934000      -2.97712000      -0.25826000
O       -3.70845000      -2.86644000      -1.18759000
H       -3.68707000      -1.91675000      -1.36187000
H       -3.88738000      -3.79740000      -3.01371000
O       -4.08264000      -4.18209000      -3.86743000
H       -4.90454000      -3.68642000      -4.09534000
