6
Properties=species:S:1:pos:R:3 frame=T 47=T |=T Written=T by=T MDAnalysis=T XYZWriter=T (release=T 2.4.3)=T pbc="F F F"
H      -18.94147000       0.45190000       0.53967000
O      -18.05782000       0.06531000       0.48113000
H      -17.78242000       0.00936000       1.39388000
H      -18.21832000      -1.70195000       0.52174000
O      -18.34045000      -2.63452000       0.73820000
H      -19.19329000      -2.65132000       1.16519000
