6
Properties=species:S:1:pos:R:3 frame=T 28=T |=T Written=T by=T MDAnalysis=T XYZWriter=T (release=T 2.4.3)=T pbc="F F F"
H        0.04460000     -17.34513000     -17.95430000
O       -0.54500000     -18.06269000     -17.68185000
H       -0.95367000     -17.75440000     -16.87416000
H        1.89573000     -16.88190000     -17.08058000
O        1.70440000     -16.27660000     -17.79634000
H        1.25838000     -15.51500000     -17.34571000
