6
Properties=species:S:1:pos:R:3 frame=T 22=T |=T Written=T by=T MDAnalysis=T XYZWriter=T (release=T 2.4.3)=T pbc="F F F"
H      -13.84190000     -18.25728000      -1.37060000
O      -14.02513000     -17.75713000      -0.55466000
H      -14.70636000     -18.28675000      -0.12432000
H      -12.20308000     -16.90387000      -2.85032000
O      -12.97815000     -16.34889000      -2.59982000
H      -13.24819000     -16.80246000      -1.78841000
