6
Properties=species:S:1:pos:R:3 frame=T 13=T |=T Written=T by=T MDAnalysis=T XYZWriter=T (release=T 2.4.3)=T pbc="F F F"
H      -16.81206000      -2.11293000       4.81058000
O      -16.37925000      -2.93463000       5.03702000
H      -17.13940000      -3.53352000       4.86404000
H      -18.23557000       0.29098000       6.61573000
O      -17.93296000      -0.62719000       6.79401000
H      -17.98212000      -1.05202000       5.89216000
