6
Properties=species:S:1:pos:R:3 frame=T 38=T |=T Written=T by=T MDAnalysis=T XYZWriter=T (release=T 2.4.3)=T pbc="F F F"
H       -5.84205000       0.69212000     -17.02581000
O       -5.62390000       1.12195000     -16.20245000
H       -6.28218000       1.82693000     -16.08898000
H       -5.61211000       2.82585000     -13.05569000
O       -5.99375000       2.11900000     -13.62125000
H       -6.67910000       2.50313000     -14.17547000
