6
Properties=species:S:1:pos:R:3 frame=T 23=T |=T Written=T by=T MDAnalysis=T XYZWriter=T (release=T 2.4.3)=T pbc="F F F"
H       13.23979000       5.35475000       9.85948000
O       14.08561000       4.95833000      10.09333000
H       13.93963000       4.01896000       9.87440000
H       11.73758000       2.98309000       9.10211000
O       12.60582000       2.70661000       8.82041000
H       12.57662000       3.07743000       7.93197000
