6
Properties=species:S:1:pos:R:3 frame=T 41=T |=T Written=T by=T MDAnalysis=T XYZWriter=T (release=T 2.4.3)=T pbc="F F F"
H        1.03543000       7.55787000      -6.74571000
O        0.63011000       8.43797000      -6.57299000
H        0.34192000       8.72594000      -7.45625000
H        2.27442000       8.97405000      -4.06371000
O        2.12291000       9.86688000      -4.38630000
H        1.64355000       9.75055000      -5.18884000
