6
Properties=species:S:1:pos:R:3 frame=T 8=T |=T Written=T by=T MDAnalysis=T XYZWriter=T (release=T 2.4.3)=T pbc="F F F"
H       10.79107000      -2.12255000     -16.90532000
O       10.31590000      -1.41010000     -16.43616000
H       10.11107000      -1.80847000     -15.60813000
H        9.99129000      -4.06058000     -18.44429000
O       10.80393000      -3.52755000     -18.34642000
H       11.42220000      -3.97226000     -18.90169000
