6
Properties=species:S:1:pos:R:3 frame=T 6=T |=T Written=T by=T MDAnalysis=T XYZWriter=T (release=T 2.4.3)=T pbc="F F F"
H       10.46199000      -5.46536000      10.72171000
O       11.17541000      -5.82938000      10.17054000
H       11.05767000      -5.27348000       9.38113000
H       11.69368000      -3.46646000       7.50063000
O       12.04151000      -4.23511000       7.92555000
H       12.97632000      -4.13135000       8.06447000
