6
Properties=species:S:1:pos:R:3 frame=T 46=T |=T Written=T by=T MDAnalysis=T XYZWriter=T (release=T 2.4.3)=T pbc="F F F"
H      -10.15502000       0.16953000      -1.10793000
O      -10.15797000      -0.30877000      -0.29612000
H      -11.09037000      -0.17436000      -0.07504000
H       -8.85989000      -1.74193000      -0.79712000
O       -7.98596000      -2.08135000      -0.96979000
H       -8.16720000      -3.02132000      -1.20372000
