6
Properties=species:S:1:pos:R:3 frame=T 54=T |=T Written=T by=T MDAnalysis=T XYZWriter=T (release=T 2.4.3)=T pbc="F F F"
H       14.97373000     -10.85473000     -18.18545000
O       14.90598000     -11.77168000     -18.57492000
H       14.51613000     -11.56362000     -19.43270000
H       15.62781000      -7.85626000     -18.46965000
O       15.74279000      -8.74872000     -18.15641000
H       15.18010000      -8.80240000     -17.38271000
