6
Properties=species:S:1:pos:R:3 frame=T 1=T |=T Written=T by=T MDAnalysis=T XYZWriter=T (release=T 2.4.3)=T pbc="F F F"
H      -18.81945000       9.10723000      11.46332000
O      -18.39920000       8.42957000      11.99774000
H      -19.13528000       7.94889000      12.42676000
H      -18.36854000      11.54563000      10.98382000
O      -18.26661000      10.90392000      10.30037000
H      -17.28062000      10.89073000      10.19181000
