6
Properties=species:S:1:pos:R:3 frame=T 7=T |=T Written=T by=T MDAnalysis=T XYZWriter=T (release=T 2.4.3)=T pbc="F F F"
H       15.35579000       9.77071000      10.34503000
O       15.78567000       9.45120000       9.52460000
H       16.72460000       9.70877000       9.64994000
H       15.15851000       7.58124000       9.09668000
O       14.62756000       6.79111000       9.29660000
H       14.63007000       6.35823000       8.41390000
