6
Properties=species:S:1:pos:R:3 frame=T 37=T |=T Written=T by=T MDAnalysis=T XYZWriter=T (release=T 2.4.3)=T pbc="F F F"
H       12.89262000     -14.17932000      18.70054000
O       13.70189000     -13.74098000      18.42785000
H       14.25454000     -14.50258000      18.16703000
H       12.32438000     -15.63693000      16.90055000
O       11.64575000     -15.11444000      16.38128000
H       10.92210000     -15.13274000      16.99556000
