6
Properties=species:S:1:pos:R:3 frame=T 29=T |=T Written=T by=T MDAnalysis=T XYZWriter=T (release=T 2.4.3)=T pbc="F F F"
H       18.80614000      -5.81520000       3.31159000
O       18.36629000      -5.34302000       2.60596000
H       17.55889000      -4.96733000       2.94667000
H       17.17495000      -3.64331000       5.32788000
O       17.80473000      -3.16225000       4.77285000
H       18.40737000      -3.78737000       4.43019000
