6
Properties=species:S:1:pos:R:3 frame=T 6=T |=T Written=T by=T MDAnalysis=T XYZWriter=T (release=T 2.4.3)=T pbc="F F F"
H       15.38183000       5.92467000      -1.27682000
O       16.12588000       5.38289000      -1.62965000
H       15.85817000       5.25521000      -2.55700000
H       14.97534000       3.55527000      -2.22063000
O       14.33903000       2.86991000      -1.97349000
H       13.85309000       3.32553000      -1.30026000
