6
Properties=species:S:1:pos:R:3 frame=T 36=T |=T Written=T by=T MDAnalysis=T XYZWriter=T (release=T 2.4.3)=T pbc="F F F"
H       14.43750000     -15.48442000      -8.21530000
O       13.56348000     -15.85615000      -8.06986000
H       13.72626000     -16.80350000      -8.10482000
H       12.52996000     -18.67122000      -6.61875000
O       13.39189000     -18.68319000      -7.03343000
H       13.96094000     -18.65231000      -6.25864000
