6
Properties=species:S:1:pos:R:3 frame=T 2=T |=T Written=T by=T MDAnalysis=T XYZWriter=T (release=T 2.4.3)=T pbc="F F F"
H       16.29966000       7.86999000      16.91269000
O       16.59853000       7.78235000      16.00843000
H       17.52600000       7.95897000      16.05714000
H       15.77182000       6.44253000      13.02558000
O       15.63439000       7.26516000      13.47850000
H       15.78974000       7.01783000      14.38845000
