6
Properties=species:S:1:pos:R:3 frame=T 51=T |=T Written=T by=T MDAnalysis=T XYZWriter=T (release=T 2.4.3)=T pbc="F F F"
H       17.63629000      -1.74282000       4.94868000
O       18.24931000      -2.03853000       4.27431000
H       18.59512000      -2.82800000       4.68771000
H       17.15819000      -3.26780000       3.36790000
O       16.43184000      -3.89904000       3.13171000
H       16.64243000      -4.65592000       3.67383000
