6
Properties=species:S:1:pos:R:3 frame=T 45=T |=T Written=T by=T MDAnalysis=T XYZWriter=T (release=T 2.4.3)=T pbc="F F F"
H       -1.43421000       3.65907000       4.76290000
O       -2.12754000       3.13817000       4.32633000
H       -2.18953000       2.33871000       4.87623000
H       -0.84831000       3.77693000       6.49269000
O       -0.28987000       4.34344000       5.94362000
H       -0.40291000       5.24339000       6.29238000
