6
Properties=species:S:1:pos:R:3 frame=T 20=T |=T Written=T by=T MDAnalysis=T XYZWriter=T (release=T 2.4.3)=T pbc="F F F"
H        5.72321000      11.49335000      -0.78588000
O        6.22006000      10.78864000      -0.37746000
H        6.54878000      11.23606000       0.39476000
H        6.26836000       9.04755000      -1.25992000
O        6.24124000       8.35815000      -1.94965000
H        7.17454000       8.23492000      -2.14871000
