6
Properties=species:S:1:pos:R:3 frame=T 41=T |=T Written=T by=T MDAnalysis=T XYZWriter=T (release=T 2.4.3)=T pbc="F F F"
H       11.28645000      -8.44001000     -10.16895000
O       11.02521000      -7.67236000     -10.70524000
H       10.08949000      -7.60454000     -10.45105000
H       14.32325000      -9.31097000     -10.40911000
O       13.70244000      -8.60458000     -10.26850000
H       12.92569000      -8.84332000     -10.84652000
