6
Properties=species:S:1:pos:R:3 frame=T 16=T |=T Written=T by=T MDAnalysis=T XYZWriter=T (release=T 2.4.3)=T pbc="F F F"
H       15.52662000      12.26549000      12.25512000
O       15.83139000      13.17024000      12.43978000
H       16.25181000      13.44495000      11.62258000
H       15.80535000      16.76466000      12.55818000
O       16.19736000      16.06762000      11.99818000
H       16.18292000      15.34696000      12.62239000
