6
Properties=species:S:1:pos:R:3 frame=T 45=T |=T Written=T by=T MDAnalysis=T XYZWriter=T (release=T 2.4.3)=T pbc="F F F"
H       11.30213000      -1.30342000       7.49923000
O       10.32366000      -1.30987000       7.62030000
H       10.22524000      -1.21699000       8.57371000
H        9.74309000      -2.32066000      10.16630000
O        8.83665000      -1.97439000      10.11645000
H        8.45687000      -2.28298000      10.94899000
