6
Properties=species:S:1:pos:R:3 frame=T 24=T |=T Written=T by=T MDAnalysis=T XYZWriter=T (release=T 2.4.3)=T pbc="F F F"
H       -9.25858000     -15.88690000     -15.34941000
O       -9.62763000     -16.56211000     -14.74453000
H       -8.94576000     -17.23018000     -14.64010000
H       -6.86696000     -17.15916000     -14.73618000
O       -7.24171000     -18.01074000     -14.92490000
H       -7.02233000     -18.20221000     -15.87275000
