6
Properties=species:S:1:pos:R:3 frame=T 43=T |=T Written=T by=T MDAnalysis=T XYZWriter=T (release=T 2.4.3)=T pbc="F F F"
H      -10.55532000      14.39644000      -3.00835000
O      -11.27123000      15.03681000      -3.03216000
H      -11.53990000      14.94952000      -3.94016000
H      -13.02266000      14.74602000      -2.97891000
O      -13.95498000      14.81259000      -3.19483000
H      -14.01965000      15.70593000      -3.49030000
