6
Properties=species:S:1:pos:R:3 frame=T 19=T |=T Written=T by=T MDAnalysis=T XYZWriter=T (release=T 2.4.3)=T pbc="F F F"
H      -17.41979000     -14.05218000     -14.45568000
O      -16.89723000     -14.68286000     -14.97979000
H      -16.90801000     -14.30629000     -15.88225000
H      -19.44994000     -16.07029000     -15.50492000
O      -18.73980000     -16.68143000     -15.20453000
H      -17.93563000     -16.16298000     -15.22050000
