6
Properties=species:S:1:pos:R:3 frame=T 35=T |=T Written=T by=T MDAnalysis=T XYZWriter=T (release=T 2.4.3)=T pbc="F F F"
H       -8.77962000      -5.08776000       4.83171000
O       -8.48060000      -5.96219000       4.47424000
H       -7.61209000      -6.06454000       4.84489000
H       -5.54461000      -4.81622000       4.65801000
O       -6.10078000      -4.81210000       5.43801000
H       -6.32553000      -3.89599000       5.66386000
