6
Properties=species:S:1:pos:R:3 frame=T 7=T |=T Written=T by=T MDAnalysis=T XYZWriter=T (release=T 2.4.3)=T pbc="F F F"
H       -4.27567000      -5.55768000      -5.38489000
O       -5.03361000      -5.05112000      -5.78431000
H       -4.68039000      -4.74616000      -6.62317000
H       -6.17919000      -7.15842000      -7.49528000
O       -6.70649000      -6.91539000      -6.69799000
H       -6.01145000      -6.47896000      -6.16266000
