6
Properties=species:S:1:pos:R:3 frame=T 49=T |=T Written=T by=T MDAnalysis=T XYZWriter=T (release=T 2.4.3)=T pbc="F F F"
H      -14.11540000       1.36854000      -6.85506000
O      -14.53044000       1.15556000      -7.72925000
H      -15.48665000       1.19237000      -7.54761000
H      -14.01025000      -1.55298000      -6.81704000
O      -13.68980000      -1.43435000      -7.72489000
H      -13.89297000      -0.50834000      -7.90801000
