6
Properties=species:S:1:pos:R:3 frame=T 50=T |=T Written=T by=T MDAnalysis=T XYZWriter=T (release=T 2.4.3)=T pbc="F F F"
H       10.90042000     -14.22556000      -9.84502000
O       11.61313000     -13.58865000      -9.68936000
H       11.18997000     -12.71146000      -9.75044000
H        8.04208000     -12.73539000      -9.72637000
O        8.79180000     -12.43408000      -9.19297000
H        9.32292000     -13.23894000      -9.08379000
