6
Properties=species:S:1:pos:R:3 frame=T 45=T |=T Written=T by=T MDAnalysis=T XYZWriter=T (release=T 2.4.3)=T pbc="F F F"
H       -4.55125000      18.01081000     -10.18686000
O       -4.66230000      18.90472000      -9.81176000
H       -3.73379000      19.07918000      -9.55700000
H       -6.64844000      18.88128000      -8.95447000
O       -6.92814000      18.07606000      -8.49479000
H       -6.08563000      17.58533000      -8.49426000
