6
Properties=species:S:1:pos:R:3 frame=T 49=T |=T Written=T by=T MDAnalysis=T XYZWriter=T (release=T 2.4.3)=T pbc="F F F"
H        0.76081000       8.17943000      -5.56988000
O       -0.21055000       8.07638000      -5.52394000
H       -0.38631000       8.55086000      -4.72855000
H        0.74196000       5.38974000      -5.61196000
O        0.60467000       5.55030000      -4.67644000
H        0.23663000       6.43828000      -4.66743000
