6
Properties=species:S:1:pos:R:3 frame=T 39=T |=T Written=T by=T MDAnalysis=T XYZWriter=T (release=T 2.4.3)=T pbc="F F F"
H       -5.02531000      -8.16510000      -9.23676000
O       -4.74205000      -9.09361000      -9.25836000
H       -3.98569000      -9.14113000      -8.70196000
H       -7.11846000      -6.23735000      -9.52990000
O       -6.26086000      -6.67541000      -9.44397000
H       -5.66941000      -6.04161000      -9.83123000
