6
Properties=species:S:1:pos:R:3 frame=T 36=T |=T Written=T by=T MDAnalysis=T XYZWriter=T (release=T 2.4.3)=T pbc="F F F"
H      -10.19565000      -6.59869000     -10.39643000
O      -11.10190000      -6.67265000     -10.06869000
H      -11.26225000      -5.80439000      -9.63984000
H       -8.35300000      -6.24347000     -10.10201000
O       -8.08889000      -6.78055000      -9.34076000
H       -8.44665000      -7.68286000      -9.52929000
