6
Properties=species:S:1:pos:R:3 frame=T 18=T |=T Written=T by=T MDAnalysis=T XYZWriter=T (release=T 2.4.3)=T pbc="F F F"
H      -15.12707000       8.66911000      14.27247000
O      -15.64426000       9.17249000      14.93841000
H      -16.49903000       9.18448000      14.48751000
H      -16.96195000       9.81548000      12.47211000
O      -17.36620000       9.13980000      13.04655000
H      -17.84434000       8.56975000      12.42711000
