6
Properties=species:S:1:pos:R:3 frame=T 48=T |=T Written=T by=T MDAnalysis=T XYZWriter=T (release=T 2.4.3)=T pbc="F F F"
H       -3.29360000      -4.83741000       0.07076000
O       -4.14867000      -5.32908000       0.12087000
H       -4.81575000      -4.62325000       0.09018000
H       -1.79739000      -4.65398000      -1.28988000
O       -1.74692000      -4.09575000      -0.50037000
H       -2.21456000      -3.29432000      -0.71910000
