6
Properties=species:S:1:pos:R:3 frame=T 20=T |=T Written=T by=T MDAnalysis=T XYZWriter=T (release=T 2.4.3)=T pbc="F F F"
H       -0.37328000       8.15009000      -0.51403000
O       -0.56130000       8.73425000      -1.26213000
H       -0.00375000       9.52008000      -1.10447000
H        1.65515000       9.45052000      -0.13934000
O        1.20930000      10.31002000      -0.26244000
H        0.64460000      10.42677000       0.52971000
