6
Properties=species:S:1:pos:R:3 frame=T 36=T |=T Written=T by=T MDAnalysis=T XYZWriter=T (release=T 2.4.3)=T pbc="F F F"
H       -0.41892000      17.38163000     -11.85338000
O       -0.65645000      17.76995000     -11.00589000
H       -1.25050000      17.07973000     -10.61104000
H        1.38890000      15.55561000     -12.53094000
O        1.29378000      15.83360000     -13.44733000
H        2.14619000      16.29657000     -13.53674000
