6
Properties=species:S:1:pos:R:3 frame=T 35=T |=T Written=T by=T MDAnalysis=T XYZWriter=T (release=T 2.4.3)=T pbc="F F F"
H      -18.43332000      15.35705000      -2.54357000
O      -19.07388000      14.73020000      -2.89884000
H      -19.44373000      15.19964000      -3.67171000
H      -19.00344000      18.63025000      -5.27746000
O      -18.85225000      17.68040000      -5.05020000
H      -18.69530000      17.77917000      -4.10397000
