6
Properties=species:S:1:pos:R:3 frame=T 8=T |=T Written=T by=T MDAnalysis=T XYZWriter=T (release=T 2.4.3)=T pbc="F F F"
H       -3.62659000       3.49901000      -2.34854000
O       -4.42673000       3.14611000      -1.91409000
H       -4.01740000       2.46104000      -1.34633000
H       -7.97142000       2.55091000      -1.39069000
O       -7.46298000       2.09849000      -0.72116000
H       -6.57229000       2.26160000      -1.09166000
