6
Properties=species:S:1:pos:R:3 frame=T 54=T |=T Written=T by=T MDAnalysis=T XYZWriter=T (release=T 2.4.3)=T pbc="F F F"
H       -4.43494000     -11.68504000      -7.76369000
O       -5.12182000     -11.93750000      -8.37797000
H       -5.82872000     -11.38709000      -8.00165000
H       -6.68043000     -14.32622000     -10.95041000
O       -6.76448000     -13.59824000     -10.32788000
H       -5.88860000     -13.57246000      -9.92109000
