6
Properties=species:S:1:pos:R:3 frame=T 52=T |=T Written=T by=T MDAnalysis=T XYZWriter=T (release=T 2.4.3)=T pbc="F F F"
H       -6.87012000     -14.59603000       7.16991000
O       -7.22698000     -14.97422000       6.33650000
H       -6.92931000     -15.87211000       6.40106000
H       -9.68575000     -16.12440000       7.51535000
O       -9.78481000     -15.21770000       7.19293000
H       -8.87009000     -15.07342000       6.92319000
