6
Properties=species:S:1:pos:R:3 frame=T 4=T |=T Written=T by=T MDAnalysis=T XYZWriter=T (release=T 2.4.3)=T pbc="F F F"
H       16.54486000       4.05736000      -2.25729000
O       16.12797000       3.27251000      -2.66729000
H       16.52409000       2.53471000      -2.16191000
H       15.10675000       3.90366000      -1.26093000
O       14.75295000       4.66174000      -0.75295000
H       13.93327000       4.93957000      -1.22527000
