6
Properties=species:S:1:pos:R:3 frame=T 13=T |=T Written=T by=T MDAnalysis=T XYZWriter=T (release=T 2.4.3)=T pbc="F F F"
H       -9.70718000      10.80956000     -12.82754000
O       -9.30585000      10.97489000     -13.71029000
H       -8.54327000      11.54138000     -13.52981000
H       -9.28342000       8.23340000     -10.94886000
O       -8.95675000       8.24194000     -11.86013000
H       -8.64115000       9.14435000     -11.99016000
