6
Properties=species:S:1:pos:R:3 frame=T 36=T |=T Written=T by=T MDAnalysis=T XYZWriter=T (release=T 2.4.3)=T pbc="F F F"
H      -17.63390000     -18.26002000      -7.31281000
O      -16.99360000     -17.54090000      -7.40024000
H      -17.18157000     -17.15071000      -8.28205000
H      -15.17156000     -17.39260000      -6.57480000
O      -14.37487000     -17.03975000      -6.19237000
H      -14.70996000     -16.82976000      -5.29536000
