6
Properties=species:S:1:pos:R:3 frame=T 11=T |=T Written=T by=T MDAnalysis=T XYZWriter=T (release=T 2.4.3)=T pbc="F F F"
H        8.74653000      -8.27350000      14.21578000
O        8.30346000      -7.99093000      13.40980000
H        9.06988000      -7.87757000      12.80937000
H        7.77727000      -6.68049000      13.95898000
O        7.53336000      -5.78041000      14.18040000
H        6.57161000      -5.76937000      14.19166000
