6
Properties=species:S:1:pos:R:3 frame=T 5=T |=T Written=T by=T MDAnalysis=T XYZWriter=T (release=T 2.4.3)=T pbc="F F F"
H      -15.87737000      -1.03148000      12.22964000
O      -16.07105000      -0.53518000      11.41588000
H      -16.41444000      -1.25261000      10.88443000
H      -15.66659000      -2.46017000      13.60520000
O      -16.47406000      -2.90229000      13.37275000
H      -17.08201000      -2.32451000      13.80288000
