6
Properties=species:S:1:pos:R:3 frame=T 26=T |=T Written=T by=T MDAnalysis=T XYZWriter=T (release=T 2.4.3)=T pbc="F F F"
H       -0.60982000      -2.52811000      14.53831000
O       -0.31038000      -2.87046000      15.37398000
H       -1.04356000      -3.45710000      15.64659000
H       -2.22204000      -4.07210000      16.47990000
O       -1.73151000      -4.86547000      16.64468000
H       -1.47437000      -4.74832000      17.54251000
