6
Properties=species:S:1:pos:R:3 frame=T 40=T |=T Written=T by=T MDAnalysis=T XYZWriter=T (release=T 2.4.3)=T pbc="F F F"
H       -8.06233000      -2.86756000     -18.79090000
O       -8.33875000      -3.48221000     -18.12353000
H       -9.02923000      -3.93067000     -18.54548000
H       -7.64116000      -4.23771000     -16.50091000
O       -7.10297000      -4.63114000     -15.80146000
H       -7.16450000      -4.05080000     -15.06594000
