6
Properties=species:S:1:pos:R:3 frame=T 53=T |=T Written=T by=T MDAnalysis=T XYZWriter=T (release=T 2.4.3)=T pbc="F F F"
H      -15.55428000      17.12055000       1.98784000
O      -15.43207000      16.21175000       1.71310000
H      -14.54335000      16.15463000       1.37117000
H      -12.15438000      16.73877000      -0.26442000
O      -13.07491000      16.50482000      -0.05552000
H      -13.50214000      16.90754000      -0.82633000
