6
Properties=species:S:1:pos:R:3 frame=T 18=T |=T Written=T by=T MDAnalysis=T XYZWriter=T (release=T 2.4.3)=T pbc="F F F"
H      -19.21057000       2.15229000     -17.26371000
O      -18.93360000       2.61305000     -18.05860000
H      -18.54253000       3.38909000     -17.64940000
H      -17.71039000       2.10449000     -15.19218000
O      -18.42888000       1.46980000     -15.45611000
H      -17.99470000       0.76768000     -15.93121000
