6
Properties=species:S:1:pos:R:3 frame=T 18=T |=T Written=T by=T MDAnalysis=T XYZWriter=T (release=T 2.4.3)=T pbc="F F F"
H        4.89535000      -4.76353000       5.26939000
O        4.67406000      -4.06861000       4.60105000
H        5.35491000      -3.40075000       4.84636000
H        1.24846000      -3.31718000       4.84403000
O        1.97149000      -3.09864000       5.39995000
H        2.72198000      -3.55610000       5.00619000
