6
Properties=species:S:1:pos:R:3 frame=T 0=T |=T Written=T by=T MDAnalysis=T XYZWriter=T (release=T 2.4.3)=T pbc="F F F"
H       -4.81837000      17.67025000      13.01208000
O       -5.35941000      17.12485000      12.47263000
H       -6.25943000      17.27606000      12.82590000
H       -8.78552000      17.26636000      13.09792000
O       -7.83170000      17.28061000      12.96220000
H       -7.68189000      16.67733000      12.20563000
