6
Properties=species:S:1:pos:R:3 frame=T 33=T |=T Written=T by=T MDAnalysis=T XYZWriter=T (release=T 2.4.3)=T pbc="F F F"
H       -1.09144000      14.21010000      16.40245000
O       -2.02883000      14.29910000      16.37154000
H       -2.25841000      14.59360000      17.25338000
H       -2.02781000      15.67083000      14.93995000
O       -1.46196000      16.34231000      14.52108000
H       -0.66314000      16.37957000      15.01709000
