6
Properties=species:S:1:pos:R:3 frame=T 2=T |=T Written=T by=T MDAnalysis=T XYZWriter=T (release=T 2.4.3)=T pbc="F F F"
H       -7.38227000      -7.39793000      -2.23705000
O       -7.64833000      -7.04223000      -1.39001000
H       -6.81842000      -6.94627000      -0.92119000
H       -8.23648000      -6.03743000      -4.09413000
O       -8.97147000      -6.59739000      -3.75960000
H       -8.80556000      -6.69095000      -2.80708000
