6
Properties=species:S:1:pos:R:3 frame=T 16=T |=T Written=T by=T MDAnalysis=T XYZWriter=T (release=T 2.4.3)=T pbc="F F F"
H       18.53187000      10.84989000      -7.42387000
O       18.37537000      10.61588000      -6.51642000
H       17.80066000       9.84364000      -6.56940000
H       18.02212000       7.32671000      -6.95688000
O       18.02318000       7.92977000      -6.21816000
H       18.79453000       8.45993000      -6.39018000
