6
Properties=species:S:1:pos:R:3 frame=T 11=T |=T Written=T by=T MDAnalysis=T XYZWriter=T (release=T 2.4.3)=T pbc="F F F"
H      -18.23538000     -15.19979000       2.51485000
O      -17.97194000     -14.39534000       3.02994000
H      -17.00328000     -14.50990000       3.17717000
H      -17.24331000     -17.54103000       1.04612000
O      -17.49725000     -17.27505000       1.93505000
H      -16.70592000     -17.27824000       2.48866000
