6
Properties=species:S:1:pos:R:3 frame=T 47=T |=T Written=T by=T MDAnalysis=T XYZWriter=T (release=T 2.4.3)=T pbc="F F F"
H      -16.79412000       6.85956000       0.19528000
O      -17.51345000       6.94628000      -0.43812000
H      -17.64009000       7.89078000      -0.56074000
H      -15.13768000       4.65003000       0.71303000
O      -15.43679000       5.57476000       0.82543000
H      -15.48736000       5.66654000       1.76543000
