6
Properties=species:S:1:pos:R:3 frame=T 42=T |=T Written=T by=T MDAnalysis=T XYZWriter=T (release=T 2.4.3)=T pbc="F F F"
H        1.53590000      12.48266000       9.38963000
O        2.15412000      12.66912000       8.66564000
H        1.51681000      13.05889000       8.00550000
H        0.40650000      11.02735000       6.91901000
O        0.01612000      11.88828000       7.02031000
H       -0.83069000      11.73333000       7.45097000
