6
Properties=species:S:1:pos:R:3 frame=T 11=T |=T Written=T by=T MDAnalysis=T XYZWriter=T (release=T 2.4.3)=T pbc="F F F"
H       18.65496000      -4.01579000     -13.41368000
O       18.99071000      -3.73961000     -12.53612000
H       18.98637000      -4.61386000     -12.10723000
H       18.35127000      -7.13765000     -12.32434000
O       18.34753000      -6.34889000     -12.85108000
H       17.43282000      -6.11082000     -12.98429000
