6
Properties=species:S:1:pos:R:3 frame=T 37=T |=T Written=T by=T MDAnalysis=T XYZWriter=T (release=T 2.4.3)=T pbc="F F F"
H       16.39382000       3.19072000       2.69594000
O       15.57749000       3.58918000       2.37129000
H       14.88641000       3.05665000       2.81817000
H       15.39782000       2.88917000       0.26178000
O       14.92959000       2.51872000      -0.47122000
H       14.78954000       1.57567000      -0.26605000
