6
Properties=species:S:1:pos:R:3 frame=T 21=T |=T Written=T by=T MDAnalysis=T XYZWriter=T (release=T 2.4.3)=T pbc="F F F"
H       17.05792000       7.87639000       1.44104000
O       17.29701000       6.99802000       1.75054000
H       17.30619000       6.50449000       0.93024000
H       17.17547000       6.49328000       3.68750000
O       16.86562000       6.74192000       4.56679000
H       16.03820000       6.24517000       4.64188000
