6
Properties=species:S:1:pos:R:3 frame=T 54=T |=T Written=T by=T MDAnalysis=T XYZWriter=T (release=T 2.4.3)=T pbc="F F F"
H       17.51630000      -5.01341000      -0.78770000
O       16.80367000      -5.68715000      -0.85020000
H       16.27666000      -5.30315000      -1.56206000
H       16.00074000      -2.28534000      -1.71640000
O       15.36592000      -2.92542000      -1.41722000
H       15.88991000      -3.50473000      -0.81577000
