6
Properties=species:S:1:pos:R:3 frame=T 3=T |=T Written=T by=T MDAnalysis=T XYZWriter=T (release=T 2.4.3)=T pbc="F F F"
H      -15.54964000      -9.16651000     -10.58195000
O      -16.39181000      -9.65165000     -10.50339000
H      -16.15434000     -10.52487000     -10.71462000
H      -14.48482000      -7.24849000      -9.22975000
O      -14.65929000      -7.56293000     -10.12746000
H      -14.31669000      -6.84719000     -10.68029000
