6
Properties=species:S:1:pos:R:3 frame=T 26=T |=T Written=T by=T MDAnalysis=T XYZWriter=T (release=T 2.4.3)=T pbc="F F F"
H      -17.47648000      -3.07804000     -17.54864000
O      -17.80120000      -3.75385000     -16.90860000
H      -18.74141000      -3.63090000     -16.85488000
H      -18.26260000      -1.93070000     -16.13667000
O      -17.76385000      -1.34558000     -15.56435000
H      -18.02482000      -0.46602000     -15.88975000
