6
Properties=species:S:1:pos:R:3 frame=T 9=T |=T Written=T by=T MDAnalysis=T XYZWriter=T (release=T 2.4.3)=T pbc="F F F"
H       -1.09936000       2.38177000      -2.00061000
O       -0.33200000       2.86155000      -2.29723000
H        0.36537000       2.19721000      -2.16650000
H       -0.90144000       1.42099000      -4.93417000
O       -1.02060000       2.38731000      -4.86156000
H       -0.59418000       2.60787000      -4.03952000
