6
Properties=species:S:1:pos:R:3 frame=T 20=T |=T Written=T by=T MDAnalysis=T XYZWriter=T (release=T 2.4.3)=T pbc="F F F"
H      -13.17694000       3.22277000       1.73787000
O      -12.51081000       3.37889000       1.05371000
H      -12.66271000       2.68702000       0.41284000
H      -13.21016000       5.02494000      -1.11024000
O      -13.94427000       5.21034000      -0.48943000
H      -13.72673000       4.67981000       0.29313000
