6
Properties=species:S:1:pos:R:3 frame=T 33=T |=T Written=T by=T MDAnalysis=T XYZWriter=T (release=T 2.4.3)=T pbc="F F F"
H       13.60693000     -17.53271000     -11.49635000
O       13.84063000     -18.25768000     -12.05547000
H       13.17966000     -18.20770000     -12.76151000
H       11.93902000     -17.82222000     -15.04146000
O       11.79514000     -18.63301000     -14.54249000
H       11.11414000     -18.34140000     -13.90795000
