6
Properties=species:S:1:pos:R:3 frame=T 15=T |=T Written=T by=T MDAnalysis=T XYZWriter=T (release=T 2.4.3)=T pbc="F F F"
H      -15.34551000       6.02448000      -3.52981000
O      -15.45450000       6.72351000      -2.87643000
H      -15.83203000       7.45675000      -3.37321000
H      -15.85191000       4.06568000      -4.66926000
O      -15.11268000       4.10977000      -4.05419000
H      -14.47563000       3.47661000      -4.44641000
