6
Properties=species:S:1:pos:R:3 frame=T 50=T |=T Written=T by=T MDAnalysis=T XYZWriter=T (release=T 2.4.3)=T pbc="F F F"
H        6.69819000      18.29692000     -15.50142000
O        7.55443000      18.04054000     -15.08865000
H        8.26441000      17.95856000     -15.73652000
H        6.71932000      16.21372000     -15.16771000
O        6.43027000      15.48677000     -15.74503000
H        5.66266000      15.80045000     -16.24021000
