6
Properties=species:S:1:pos:R:3 frame=T 49=T |=T Written=T by=T MDAnalysis=T XYZWriter=T (release=T 2.4.3)=T pbc="F F F"
H       15.20256000      13.27202000      -5.49124000
O       14.35844000      13.60763000      -5.19622000
H       14.03282000      12.87048000      -4.64118000
H       12.56252000      12.52736000      -2.54012000
O       12.69159000      12.06084000      -3.35837000
H       12.87434000      11.12534000      -3.13115000
