6
Properties=species:S:1:pos:R:3 frame=T 49=T |=T Written=T by=T MDAnalysis=T XYZWriter=T (release=T 2.4.3)=T pbc="F F F"
H       -5.79967000      -8.81922000     -18.56490000
O       -6.41620000      -8.23616000     -18.14411000
H       -7.24807000      -8.52678000     -18.49831000
H       -9.94586000      -9.40030000     -19.51130000
O       -9.22376000      -8.88739000     -19.10263000
H       -9.30327000      -9.20727000     -18.18611000
