6
Properties=species:S:1:pos:R:3 frame=T 14=T |=T Written=T by=T MDAnalysis=T XYZWriter=T (release=T 2.4.3)=T pbc="F F F"
H       12.11466000     -17.19593000     -14.37124000
O       11.90990000     -18.08790000     -14.51567000
H       10.98712000     -18.07146000     -14.84580000
H       13.69733000     -15.92138000     -16.13124000
O       13.45514000     -15.73299000     -15.19639000
H       13.07471000     -14.85663000     -15.29650000
