6
Properties=species:S:1:pos:R:3 frame=T 36=T |=T Written=T by=T MDAnalysis=T XYZWriter=T (release=T 2.4.3)=T pbc="F F F"
H       -4.14879000      -1.44440000      12.40092000
O       -4.76743000      -2.16097000      12.65503000
H       -5.60593000      -1.68678000      12.66199000
H       -2.37331000       0.21688000      13.59803000
O       -2.37367000      -0.32622000      12.80780000
H       -2.45553000       0.34448000      12.09348000
