6
Properties=species:S:1:pos:R:3 frame=T 24=T |=T Written=T by=T MDAnalysis=T XYZWriter=T (release=T 2.4.3)=T pbc="F F F"
H        9.40629000     -16.28449000       2.89058000
O        9.78356000     -16.08521000       3.76345000
H       10.15022000     -16.91915000       4.06252000
H       10.80852000     -17.65246000       2.00262000
O       10.67632000     -18.46679000       2.50399000
H       11.58220000     -18.83419000       2.49635000
