6
Properties=species:S:1:pos:R:3 frame=T 39=T |=T Written=T by=T MDAnalysis=T XYZWriter=T (release=T 2.4.3)=T pbc="F F F"
H       -9.03295000       6.40947000       9.19193000
O       -8.69671000       7.24288000       9.53366000
H       -8.72313000       7.09303000      10.48902000
H      -10.99942000       8.73220000      10.74743000
O      -10.61082000       9.54265000      10.39168000
H       -9.77499000       9.28550000       9.96205000
