6
Properties=species:S:1:pos:R:3 frame=T 19=T |=T Written=T by=T MDAnalysis=T XYZWriter=T (release=T 2.4.3)=T pbc="F F F"
H        2.48218000     -14.17637000       1.78567000
O        2.64775000     -15.07439000       1.47016000
H        3.46009000     -15.31992000       1.93387000
H        0.27027000     -14.50134000       3.12198000
O        0.14567000     -15.21478000       2.48011000
H        1.04871000     -15.40693000       2.20708000
