6
Properties=species:S:1:pos:R:3 frame=T 40=T |=T Written=T by=T MDAnalysis=T XYZWriter=T (release=T 2.4.3)=T pbc="F F F"
H        5.90103000       5.04770000      -1.13939000
O        6.43907000       4.79171000      -1.90868000
H        6.03532000       5.26015000      -2.62786000
H        5.18525000       6.66994000       0.16608000
O        4.79352000       5.87039000       0.52207000
H        4.38719000       6.16941000       1.33851000
