6
Properties=species:S:1:pos:R:3 frame=T 23=T |=T Written=T by=T MDAnalysis=T XYZWriter=T (release=T 2.4.3)=T pbc="F F F"
H       -3.36481000      15.78935000     -13.42742000
O       -3.84108000      15.75738000     -14.24735000
H       -4.39521000      16.55365000     -14.15385000
H       -1.35813000      15.60851000     -15.75105000
O       -1.60338000      16.47248000     -15.37697000
H       -2.42468000      16.32087000     -14.91372000
