6
Properties=species:S:1:pos:R:3 frame=T 40=T |=T Written=T by=T MDAnalysis=T XYZWriter=T (release=T 2.4.3)=T pbc="F F F"
H       13.59145000      14.53737000      -9.90853000
O       13.03182000      15.32281000     -10.01016000
H       13.28064000      15.88935000      -9.26729000
H       16.15737000      15.08178000      -8.54575000
O       15.60321000      15.59758000      -9.14952000
H       15.67288000      16.51194000      -8.81349000
