6
Properties=species:S:1:pos:R:3 frame=T 35=T |=T Written=T by=T MDAnalysis=T XYZWriter=T (release=T 2.4.3)=T pbc="F F F"
H       -0.29899000       7.72146000       3.52162000
O       -1.25772000       7.90501000       3.46278000
H       -1.63389000       7.05799000       3.71867000
H       -2.69361000       5.23026000       5.03587000
O       -3.11870000       5.74124000       5.73157000
H       -2.56282000       5.70246000       6.53452000
