6
Properties=species:S:1:pos:R:3 frame=T 35=T |=T Written=T by=T MDAnalysis=T XYZWriter=T (release=T 2.4.3)=T pbc="F F F"
H       -5.96398000       7.79348000     -18.94568000
O       -5.33959000       7.36378000     -18.31684000
H       -5.80136000       6.64149000     -17.87932000
H       -1.89031000       8.71122000     -18.73391000
O       -2.58585000       8.81713000     -18.05230000
H       -3.41250000       8.82694000     -18.52266000
