6
Properties=species:S:1:pos:R:3 frame=T 14=T |=T Written=T by=T MDAnalysis=T XYZWriter=T (release=T 2.4.3)=T pbc="F F F"
H      -13.52438000      -6.88478000     -11.03653000
O      -13.63141000      -7.50454000     -11.80140000
H      -13.45758000      -8.38281000     -11.44920000
H      -11.83838000      -9.06349000      -9.91117000
O      -11.36927000      -8.20035000      -9.96763000
H      -11.84994000      -7.69206000     -10.63464000
