6
Properties=species:S:1:pos:R:3 frame=T 12=T |=T Written=T by=T MDAnalysis=T XYZWriter=T (release=T 2.4.3)=T pbc="F F F"
H       -0.89884000       6.12551000      -8.82222000
O       -1.38433000       5.66037000      -8.12859000
H       -2.12080000       6.24080000      -7.95032000
H       -1.68650000       3.29209000      -8.14551000
O       -2.15744000       2.47630000      -8.18862000
H       -2.48267000       2.38968000      -7.28305000
