6
Properties=species:S:1:pos:R:3 frame=T 31=T |=T Written=T by=T MDAnalysis=T XYZWriter=T (release=T 2.4.3)=T pbc="F F F"
H        1.21599000      12.13303000      -8.72130000
O        0.89203000      12.58233000      -9.53801000
H       -0.03857000      12.76787000      -9.39560000
H       -3.28014000      13.35816000     -10.02624000
O       -2.79535000      12.51403000     -10.04448000
H       -2.32962000      12.50930000      -9.20633000
