6
Properties=species:S:1:pos:R:3 frame=T 20=T |=T Written=T by=T MDAnalysis=T XYZWriter=T (release=T 2.4.3)=T pbc="F F F"
H       12.35719000      17.19669000      -6.31645000
O       12.37368000      17.00970000      -7.25784000
H       11.54722000      16.55278000      -7.39487000
H       10.01470000      17.23449000      -7.77782000
O        9.76083000      18.03961000      -7.33258000
H       10.61982000      18.51107000      -7.43376000
