6
Properties=species:S:1:pos:R:3 frame=T 47=T |=T Written=T by=T MDAnalysis=T XYZWriter=T (release=T 2.4.3)=T pbc="F F F"
H       13.14611000      13.15404000      -2.63037000
O       13.85772000      12.56179000      -2.28147000
H       13.52176000      12.35206000      -1.38239000
H       14.30749000      14.82457000      -3.24331000
O       14.70093000      14.94843000      -2.36402000
H       14.44642000      14.11250000      -1.94922000
