6
Properties=species:S:1:pos:R:3 frame=T 17=T |=T Written=T by=T MDAnalysis=T XYZWriter=T (release=T 2.4.3)=T pbc="F F F"
H       -4.77265000      -0.40446000     -19.40603000
O       -4.46882000       0.05568000     -18.60125000
H       -4.38334000      -0.66903000     -17.91753000
H       -4.06478000      -2.58051000     -16.41024000
O       -3.25757000      -2.74192000     -16.90047000
H       -2.89349000      -1.84325000     -16.96843000
