6
Properties=species:S:1:pos:R:3 frame=T 33=T |=T Written=T by=T MDAnalysis=T XYZWriter=T (release=T 2.4.3)=T pbc="F F F"
H        2.50988000      13.96398000     -17.47089000
O        2.80893000      13.06491000     -17.72110000
H        2.02277000      12.54568000     -17.49487000
H        4.66338000      12.21733000     -16.61800000
O        5.00425000      11.44942000     -17.10695000
H        4.62924000      11.58032000     -17.99996000
