6
Properties=species:S:1:pos:R:3 frame=T 34=T |=T Written=T by=T MDAnalysis=T XYZWriter=T (release=T 2.4.3)=T pbc="F F F"
H      -13.58633000       8.46237000      -8.39166000
O      -12.64704000       8.34451000      -8.48392000
H      -12.59724000       7.39593000      -8.54029000
H      -13.45276000       9.63825000     -11.01194000
O      -12.73641000       9.04394000     -10.95144000
H      -12.39425000       9.11541000     -10.04877000
