6
Properties=species:S:1:pos:R:3 frame=T 32=T |=T Written=T by=T MDAnalysis=T XYZWriter=T (release=T 2.4.3)=T pbc="F F F"
H        9.95149000       5.16318000      -3.27923000
O       10.93477000       5.10637000      -3.16939000
H       11.19190000       4.59864000      -3.95118000
H       11.56349000       5.04710000      -1.21418000
O       11.27758000       4.41789000      -0.54766000
H       11.03817000       3.65448000      -1.05826000
