6
Properties=species:S:1:pos:R:3 frame=T 45=T |=T Written=T by=T MDAnalysis=T XYZWriter=T (release=T 2.4.3)=T pbc="F F F"
H       -6.95249000      -4.74821000      18.50010000
O       -6.20715000      -4.66335000      17.86860000
H       -5.93037000      -5.55820000      17.71320000
H       -6.26951000      -7.60800000      17.96133000
O       -5.36262000      -7.37151000      18.15493000
H       -5.39272000      -7.37159000      19.12368000
