6
Properties=species:S:1:pos:R:3 frame=T 35=T |=T Written=T by=T MDAnalysis=T XYZWriter=T (release=T 2.4.3)=T pbc="F F F"
H      -13.78730000      -8.94725000       2.14068000
O      -13.77395000      -9.68369000       2.75539000
H      -12.89430000      -9.66019000       3.12158000
H      -14.55704000     -11.57577000       2.22710000
O      -14.62577000     -12.42613000       1.79207000
H      -14.23355000     -12.22068000       0.92673000
