6
Properties=species:S:1:pos:R:3 frame=T 44=T |=T Written=T by=T MDAnalysis=T XYZWriter=T (release=T 2.4.3)=T pbc="F F F"
H      -15.32419000      13.88305000      17.25502000
O      -15.96796000      13.18146000      17.41533000
H      -16.48554000      13.50524000      18.13462000
H      -17.04321000      13.05972000      16.01431000
O      -17.65990000      13.34709000      15.30129000
H      -17.64993000      14.31489000      15.36030000
