6
Properties=species:S:1:pos:R:3 frame=T 25=T |=T Written=T by=T MDAnalysis=T XYZWriter=T (release=T 2.4.3)=T pbc="F F F"
H        2.89188000      -6.16841000       2.60917000
O        2.60069000      -5.27825000       2.36809000
H        2.43547000      -5.35696000       1.40623000
H        2.03577000      -6.22949000      -0.68144000
O        2.85859000      -6.45478000      -0.23149000
H        2.70719000      -7.33237000       0.17940000
