6
Properties=species:S:1:pos:R:3 frame=T 23=T |=T Written=T by=T MDAnalysis=T XYZWriter=T (release=T 2.4.3)=T pbc="F F F"
H       -8.55847000       4.85800000      -6.72425000
O       -8.69388000       4.75480000      -7.69059000
H       -8.12025000       5.44001000      -8.11830000
H       -9.16259000       7.98990000      -7.59152000
O       -8.44719000       7.54416000      -8.05884000
H       -7.65749000       7.87494000      -7.65388000
