6
Properties=species:S:1:pos:R:3 frame=T 39=T |=T Written=T by=T MDAnalysis=T XYZWriter=T (release=T 2.4.3)=T pbc="F F F"
H       -0.70357000     -15.51774000     -10.55646000
O       -1.16398000     -15.99949000     -11.26570000
H       -1.52641000     -16.73551000     -10.75286000
H       -0.88102000     -14.58465000      -8.64893000
O       -0.08099000     -14.68093000      -9.20161000
H        0.42808000     -15.33253000      -8.72343000
