6
Properties=species:S:1:pos:R:3 frame=T 11=T |=T Written=T by=T MDAnalysis=T XYZWriter=T (release=T 2.4.3)=T pbc="F F F"
H       -3.49127000     -16.52417000      10.52701000
O       -3.47715000     -16.86217000      11.42938000
H       -4.23254000     -16.44300000      11.85789000
H       -4.60838000     -17.87852000       9.42987000
O       -5.56854000     -18.02262000       9.37063000
H       -5.80950000     -18.54593000      10.12475000
