6
Properties=species:S:1:pos:R:3 frame=T 30=T |=T Written=T by=T MDAnalysis=T XYZWriter=T (release=T 2.4.3)=T pbc="F F F"
H        0.23736000     -10.26800000       4.54351000
O        1.21470000     -10.45866000       4.64302000
H        1.27334000     -11.29939000       4.19883000
H        3.27687000      -9.80946000       2.62682000
O        2.36277000      -9.89634000       2.35111000
H        1.83286000      -9.70198000       3.15147000
