6
Properties=species:S:1:pos:R:3 frame=T 40=T |=T Written=T by=T MDAnalysis=T XYZWriter=T (release=T 2.4.3)=T pbc="F F F"
H        3.19656000      -1.42832000      15.62953000
O        3.38867000      -1.50593000      14.67517000
H        4.00272000      -2.24039000      14.71193000
H        2.09947000      -1.94352000      12.90244000
O        1.13144000      -1.98963000      13.00964000
H        0.98775000      -2.37985000      13.88451000
