6
Properties=species:S:1:pos:R:3 frame=T 42=T |=T Written=T by=T MDAnalysis=T XYZWriter=T (release=T 2.4.3)=T pbc="F F F"
H        7.58549000     -14.43619000       7.97704000
O        7.73934000     -14.88060000       8.82466000
H        6.92811000     -15.34221000       9.07084000
H        5.03066000     -15.49808000       9.50735000
O        5.69139000     -16.22141000       9.60153000
H        5.94057000     -16.18571000      10.53152000
