6
Properties=species:S:1:pos:R:3 frame=T 25=T |=T Written=T by=T MDAnalysis=T XYZWriter=T (release=T 2.4.3)=T pbc="F F F"
H      -10.58921000      16.44582000      10.99791000
O       -9.94216000      15.84617000      11.42877000
H       -9.83811000      16.20883000      12.29666000
H      -10.52809000      15.99607000      13.96610000
O       -9.95292000      16.75424000      13.83441000
H       -9.26692000      16.53249000      14.46222000
