6
Properties=species:S:1:pos:R:3 frame=T 31=T |=T Written=T by=T MDAnalysis=T XYZWriter=T (release=T 2.4.3)=T pbc="F F F"
H       -9.29678000     -10.96084000     -13.90720000
O       -9.36453000     -10.98466000     -12.93504000
H      -10.32122000     -10.93642000     -12.77198000
H       -7.38327000     -11.18282000     -15.20406000
O       -8.27375000     -10.97816000     -15.53753000
H       -8.12276000     -10.78728000     -16.48355000
