6
Properties=species:S:1:pos:R:3 frame=T 40=T |=T Written=T by=T MDAnalysis=T XYZWriter=T (release=T 2.4.3)=T pbc="F F F"
H       -0.27160000      19.34460000     -13.02350000
O       -0.88817000      19.03990000     -12.34064000
H       -1.14002000      18.16329000     -12.65865000
H       -2.73210000      15.88033000     -12.32721000
O       -1.83794000      16.23758000     -12.46363000
H       -1.72625000      16.03302000     -13.40844000
