6
Properties=species:S:1:pos:R:3 frame=T 53=T |=T Written=T by=T MDAnalysis=T XYZWriter=T (release=T 2.4.3)=T pbc="F F F"
H       -3.88294000       1.05543000      10.68284000
O       -4.10263000       1.51546000       9.89628000
H       -3.24805000       1.76146000       9.50334000
H       -4.18980000      -1.12229000       8.49915000
O       -5.08530000      -0.84023000       8.26756000
H       -5.12248000       0.05811000       8.62623000
