6
Properties=species:S:1:pos:R:3 frame=T 41=T |=T Written=T by=T MDAnalysis=T XYZWriter=T (release=T 2.4.3)=T pbc="F F F"
H       15.37769000      11.98640000      15.13463000
O       15.53633000      11.24599000      14.49337000
H       16.22753000      10.79551000      14.98588000
H       14.99864000      13.83910000      16.00238000
O       15.01860000      13.12368000      16.67406000
H       15.95983000      12.94562000      16.82164000
