6
Properties=species:S:1:pos:R:3 frame=T 8=T |=T Written=T by=T MDAnalysis=T XYZWriter=T (release=T 2.4.3)=T pbc="F F F"
H        4.62587000       4.60188000      13.85332000
O        3.90534000       4.65402000      14.47462000
H        3.53943000       5.50926000      14.26817000
H        2.19220000       3.97501000      14.53854000
O        1.25116000       4.05967000      14.31748000
H        1.23775000       4.79801000      13.68949000
