6
Properties=species:S:1:pos:R:3 frame=T 0=T |=T Written=T by=T MDAnalysis=T XYZWriter=T (release=T 2.4.3)=T pbc="F F F"
H        7.52087000      -7.02907000       9.93211000
O        7.66469000      -7.71149000      10.58582000
H        7.36826000      -8.49322000      10.15331000
H        8.70080000      -9.28003000       8.17455000
O        8.10502000      -9.75749000       8.75746000
H        7.26392000      -9.56844000       8.37449000
