6
Properties=species:S:1:pos:R:3 frame=T 38=T |=T Written=T by=T MDAnalysis=T XYZWriter=T (release=T 2.4.3)=T pbc="F F F"
H      -18.19436000      -9.88062000      -0.89909000
O      -18.77913000      -9.55122000      -1.58065000
H      -18.87930000     -10.26439000      -2.22883000
H      -18.07641000     -11.19626000      -3.95419000
O      -18.83266000     -11.45420000      -3.35171000
H      -18.45229000     -12.18014000      -2.82240000
