6
Properties=species:S:1:pos:R:3 frame=T 21=T |=T Written=T by=T MDAnalysis=T XYZWriter=T (release=T 2.4.3)=T pbc="F F F"
H        7.08081000       8.18456000      -8.46927000
O        7.97239000       7.85164000      -8.27868000
H        8.21904000       8.16544000      -7.40238000
H        7.11956000       6.35596000      -7.51992000
O        6.63195000       5.76550000      -6.93972000
H        5.76737000       5.79561000      -7.44178000
