6
Properties=species:S:1:pos:R:3 frame=T 16=T |=T Written=T by=T MDAnalysis=T XYZWriter=T (release=T 2.4.3)=T pbc="F F F"
H      -17.08529000       6.46277000      11.16111000
O      -17.32526000       7.38488000      11.36406000
H      -17.62512000       7.69284000      10.50158000
H      -15.54498000       7.29962000      11.05673000
O      -14.63037000       7.06176000      10.92186000
H      -14.21178000       7.41604000      11.68441000
