6
Properties=species:S:1:pos:R:3 frame=T 22=T |=T Written=T by=T MDAnalysis=T XYZWriter=T (release=T 2.4.3)=T pbc="F F F"
H       -0.72019000       0.47323000       7.73081000
O       -0.20646000       0.09780000       6.99471000
H        0.07044000      -0.79531000       7.32642000
H        0.93304000      -1.55062000       6.19121000
O        0.75555000      -2.37915000       6.66158000
H        1.60843000      -2.54559000       7.07682000
