6
Properties=species:S:1:pos:R:3 frame=T 8=T |=T Written=T by=T MDAnalysis=T XYZWriter=T (release=T 2.4.3)=T pbc="F F F"
H       18.98305000      13.62522000       7.84849000
O       18.88501000      13.93164000       6.90898000
H       17.92023000      13.98613000       6.80977000
H       18.69938000      15.70041000       5.73087000
O       18.75449000      16.21201000       4.92532000
H       17.98124000      16.82379000       4.91643000
