6
Properties=species:S:1:pos:R:3 frame=T 51=T |=T Written=T by=T MDAnalysis=T XYZWriter=T (release=T 2.4.3)=T pbc="F F F"
H        5.06196000      13.85741000      12.18087000
O        5.28991000      14.70217000      11.79759000
H        4.53246000      15.28432000      11.93153000
H        2.42027000      13.09579000      13.03433000
O        3.37820000      12.91654000      13.12093000
H        3.62820000      13.45067000      13.93267000
