6
Properties=species:S:1:pos:R:3 frame=T 49=T |=T Written=T by=T MDAnalysis=T XYZWriter=T (release=T 2.4.3)=T pbc="F F F"
H       -2.43605000      -6.91083000     -12.76183000
O       -2.04087000      -7.53068000     -13.38404000
H       -2.29614000      -7.15039000     -14.22676000
H       -3.94405000      -5.96700000     -11.12344000
O       -3.64683000      -5.76310000     -12.02505000
H       -4.17145000      -6.36937000     -12.56454000
