6
Properties=species:S:1:pos:R:3 frame=T 29=T |=T Written=T by=T MDAnalysis=T XYZWriter=T (release=T 2.4.3)=T pbc="F F F"
H        9.28518000     -10.05030000      17.27764000
O        9.55651000     -10.90800000      16.95106000
H        9.47640000     -10.82716000      16.01453000
H       11.07020000     -12.67929000      19.21372000
O       10.67584000     -13.08096000      18.46392000
H       10.06489000     -12.40584000      18.13080000
