6
Properties=species:S:1:pos:R:3 frame=T 11=T |=T Written=T by=T MDAnalysis=T XYZWriter=T (release=T 2.4.3)=T pbc="F F F"
H      -11.21817000       3.79375000      15.53713000
O      -11.84234000       4.47817000      15.34315000
H      -12.50438000       4.01375000      14.82347000
H      -11.72888000       3.85277000      17.04238000
O      -12.08591000       3.85622000      17.92521000
H      -11.78206000       3.05229000      18.32879000
