6
Properties=species:S:1:pos:R:3 frame=T 36=T |=T Written=T by=T MDAnalysis=T XYZWriter=T (release=T 2.4.3)=T pbc="F F F"
H       -9.94977000      -1.87389000     -13.36730000
O      -10.17169000      -0.98472000     -13.02246000
H      -10.97766000      -0.64881000     -13.46549000
H      -11.36759000      -3.48851000     -14.08439000
O      -11.27567000      -3.19656000     -15.00421000
H      -12.18810000      -3.20371000     -15.32216000
