6
Properties=species:S:1:pos:R:3 frame=T 54=T |=T Written=T by=T MDAnalysis=T XYZWriter=T (release=T 2.4.3)=T pbc="F F F"
H       -8.43823000     -18.03414000      -2.65076000
O       -8.50951000     -17.17610000      -2.24101000
H       -9.31380000     -16.86175000      -2.68280000
H       -7.89669000     -16.02945000      -3.66277000
O       -7.63191000     -15.76710000      -4.57024000
H       -8.47871000     -15.47069000      -4.94164000
