6
Properties=species:S:1:pos:R:3 frame=T 28=T |=T Written=T by=T MDAnalysis=T XYZWriter=T (release=T 2.4.3)=T pbc="F F F"
H       16.80671000     -11.43952000      11.97206000
O       17.73685000     -11.23449000      11.97730000
H       18.14068000     -11.92083000      12.50483000
H       18.08199000     -10.16585000       8.79877000
O       18.72462000     -10.33106000       9.49014000
H       18.17618000     -10.15111000      10.28464000
