6
Properties=species:S:1:pos:R:3 frame=T 43=T |=T Written=T by=T MDAnalysis=T XYZWriter=T (release=T 2.4.3)=T pbc="F F F"
H       -3.92455000       8.87550000      16.41043000
O       -3.43005000       9.71875000      16.44213000
H       -3.94927000      10.20558000      17.11242000
H       -5.79746000       7.07946000      18.50189000
O       -5.43528000       7.95393000      18.67667000
H       -4.57590000       7.95197000      18.26480000
