6
Properties=species:S:1:pos:R:3 frame=T 52=T |=T Written=T by=T MDAnalysis=T XYZWriter=T (release=T 2.4.3)=T pbc="F F F"
H       -9.94063000       3.05726000       3.97294000
O      -10.52633000       2.72707000       4.65375000
H      -11.31819000       3.25853000       4.54983000
H       -7.76937000       3.58598000       3.32922000
O       -8.60699000       3.90482000       3.01804000
H       -8.97500000       4.45814000       3.70626000
