6
Properties=species:S:1:pos:R:3 frame=T 47=T |=T Written=T by=T MDAnalysis=T XYZWriter=T (release=T 2.4.3)=T pbc="F F F"
H      -11.47371000      -5.48261000       3.94218000
O      -11.54138000      -5.97959000       3.11708000
H      -11.50710000      -6.92460000       3.38001000
H      -13.09859000      -7.64801000       5.82911000
O      -12.26113000      -7.74646000       5.38877000
H      -11.65442000      -7.36257000       5.98546000
