6
Properties=species:S:1:pos:R:3 frame=T 32=T |=T Written=T by=T MDAnalysis=T XYZWriter=T (release=T 2.4.3)=T pbc="F F F"
H       17.68596000     -17.57951000      15.54417000
O       17.14235000     -18.34212000      15.34959000
H       16.63503000     -18.49681000      16.17149000
H       17.92682000     -18.52167000      12.56833000
O       17.73456000     -17.84008000      11.91447000
H       18.25981000     -18.08937000      11.13668000
