6
Properties=species:S:1:pos:R:3 frame=T 50=T |=T Written=T by=T MDAnalysis=T XYZWriter=T (release=T 2.4.3)=T pbc="F F F"
H       17.05661000     -17.64972000       9.88410000
O       16.22655000     -17.66477000       9.37985000
H       15.55663000     -17.91282000      10.02584000
H       13.27036000     -14.28360000      10.00150000
O       13.48176000     -15.24726000      10.10749000
H       14.43626000     -15.21330000       9.94336000
