6
Properties=species:S:1:pos:R:3 frame=T 21=T |=T Written=T by=T MDAnalysis=T XYZWriter=T (release=T 2.4.3)=T pbc="F F F"
H       15.73528000      -4.48583000     -13.05784000
O       15.19816000      -3.99216000     -13.68277000
H       15.67056000      -3.17105000     -13.82638000
H       15.24578000      -4.87199000      -9.37700000
O       15.26671000      -4.78112000     -10.34636000
H       15.89445000      -4.08288000     -10.48948000
