6
Properties=species:S:1:pos:R:3 frame=T 36=T |=T Written=T by=T MDAnalysis=T XYZWriter=T (release=T 2.4.3)=T pbc="F F F"
H      -10.04919000     -13.25061000      14.91798000
O       -9.14211000     -13.50492000      15.05627000
H       -8.98971000     -13.90780000      14.18103000
H      -11.55584000     -13.96325000      13.73043000
O      -11.92559000     -13.44772000      14.44213000
H      -11.58032000     -13.88180000      15.23452000
