6
Properties=species:S:1:pos:R:3 frame=T 22=T |=T Written=T by=T MDAnalysis=T XYZWriter=T (release=T 2.4.3)=T pbc="F F F"
H      -10.61835000       4.34817000       9.68561000
O      -10.81945000       4.76446000      10.54599000
H      -10.21694000       5.48455000      10.58474000
H       -8.73260000       5.11753000      12.06007000
O       -9.32677000       4.53607000      12.54694000
H       -9.98941000       4.38125000      11.84219000
