6
Properties=species:S:1:pos:R:3 frame=T 52=T |=T Written=T by=T MDAnalysis=T XYZWriter=T (release=T 2.4.3)=T pbc="F F F"
H       18.72859000      10.94309000      -5.88170000
O       18.58900000      10.63766000      -4.96795000
H       17.60587000      10.63976000      -4.86498000
H       18.48663000      13.57456000      -3.70310000
O       18.30000000      14.15388000      -4.45868000
H       18.87592000      13.75761000      -5.13079000
