6
Properties=species:S:1:pos:R:3 frame=T 40=T |=T Written=T by=T MDAnalysis=T XYZWriter=T (release=T 2.4.3)=T pbc="F F F"
H       -7.72994000      -6.93647000      -5.97965000
O       -8.63499000      -6.78602000      -5.66312000
H       -8.98953000      -7.69070000      -5.64647000
H      -10.53679000      -6.23396000      -6.33816000
O      -11.26244000      -5.97304000      -6.90458000
H      -11.55927000      -5.17836000      -6.46863000
