6
Properties=species:S:1:pos:R:3 frame=T 23=T |=T Written=T by=T MDAnalysis=T XYZWriter=T (release=T 2.4.3)=T pbc="F F F"
H      -14.36901000       5.83173000      12.37523000
O      -15.05066000       6.00730000      11.74772000
H      -14.75921000       6.86618000      11.47872000
H      -17.56359000       6.69899000       9.39251000
O      -16.75314000       7.08127000       9.71841000
H      -16.45884000       6.46706000      10.39216000
