6
Properties=species:S:1:pos:R:3 frame=T 29=T |=T Written=T by=T MDAnalysis=T XYZWriter=T (release=T 2.4.3)=T pbc="F F F"
H        2.40856000      14.26948000      -7.76925000
O        2.20392000      14.83020000      -8.54116000
H        1.26857000      14.83233000      -8.58908000
H        0.24408000      16.70530000      -9.90506000
O       -0.00797000      15.85853000      -9.56806000
H       -0.97171000      15.80833000      -9.75108000
