6
Properties=species:S:1:pos:R:3 frame=T 23=T |=T Written=T by=T MDAnalysis=T XYZWriter=T (release=T 2.4.3)=T pbc="F F F"
H      -16.72688000      12.76537000      -2.54425000
O      -17.63828000      12.75288000      -2.90494000
H      -17.81807000      11.77467000      -2.96165000
H      -18.51638000       9.66032000      -2.44687000
O      -17.69086000      10.10912000      -2.73306000
H      -17.29425000      10.18557000      -1.83832000
