6
Properties=species:S:1:pos:R:3 frame=T 40=T |=T Written=T by=T MDAnalysis=T XYZWriter=T (release=T 2.4.3)=T pbc="F F F"
H       15.07067000     -17.40062000      10.40495000
O       15.16151000     -17.03967000       9.51244000
H       16.08699000     -16.94464000       9.29599000
H       16.10618000     -18.84580000      12.56574000
O       16.57136000     -18.39376000      11.83314000
H       16.90635000     -19.11253000      11.28875000
