6
Properties=species:S:1:pos:R:3 frame=T 9=T |=T Written=T by=T MDAnalysis=T XYZWriter=T (release=T 2.4.3)=T pbc="F F F"
H        1.20215000       7.68917000       1.99442000
O        0.66461000       7.40209000       2.73973000
H        1.25165000       7.42767000       3.48199000
H        2.27083000       7.83024000       0.24483000
O        1.59370000       8.39433000       0.63169000
H        2.06495000       9.14514000       0.96764000
