6
Properties=species:S:1:pos:R:3 frame=T 20=T |=T Written=T by=T MDAnalysis=T XYZWriter=T (release=T 2.4.3)=T pbc="F F F"
H      -12.46722000      16.74230000       4.48896000
O      -11.89587000      15.97240000       4.63937000
H      -12.18575000      15.62880000       5.48512000
H      -10.87240000      13.09839000       3.54482000
O      -10.50670000      13.39878000       4.39265000
H      -11.31806000      13.70045000       4.85922000
