6
Properties=species:S:1:pos:R:3 frame=T 12=T |=T Written=T by=T MDAnalysis=T XYZWriter=T (release=T 2.4.3)=T pbc="F F F"
H       15.43557000      16.52112000      -3.30506000
O       14.75076000      17.19435000      -3.34453000
H       13.94817000      16.68930000      -3.07421000
H       17.54170000      18.10191000      -4.66869000
O       17.10349000      18.92083000      -4.41058000
H       16.17927000      18.67593000      -4.32799000
