6
Properties=species:S:1:pos:R:3 frame=T 32=T |=T Written=T by=T MDAnalysis=T XYZWriter=T (release=T 2.4.3)=T pbc="F F F"
H        3.28058000       6.42388000     -15.07385000
O        3.91519000       5.71223000     -14.92085000
H        3.74085000       5.40873000     -14.04162000
H        2.87950000       3.61143000     -17.16850000
O        2.13246000       3.70228000     -16.56006000
H        2.22026000       4.59856000     -16.21669000
