6
Properties=species:S:1:pos:R:3 frame=T 21=T |=T Written=T by=T MDAnalysis=T XYZWriter=T (release=T 2.4.3)=T pbc="F F F"
H      -10.35642000      16.94785000     -12.66753000
O      -10.04674000      16.26511000     -13.28257000
H      -10.73055000      15.60472000     -13.29396000
H      -10.28898000      18.31073000     -14.91622000
O       -9.81747000      17.83233000     -15.61518000
H       -9.63555000      17.03669000     -15.10972000
