6
Properties=species:S:1:pos:R:3 frame=T 9=T |=T Written=T by=T MDAnalysis=T XYZWriter=T (release=T 2.4.3)=T pbc="F F F"
H        8.87467000      -5.31658000      10.68355000
O        9.76003000      -5.00791000      10.50565000
H        9.70851000      -4.94241000       9.54481000
H        7.54658000      -2.94215000      11.20957000
O        8.46377000      -2.63710000      11.14751000
H        8.98843000      -3.42372000      11.19247000
