6
Properties=species:S:1:pos:R:3 frame=T 5=T |=T Written=T by=T MDAnalysis=T XYZWriter=T (release=T 2.4.3)=T pbc="F F F"
H      -10.58965000     -18.32373000      18.06632000
O      -11.15485000     -18.88513000      17.55109000
H      -11.96609000     -18.40114000      17.52687000
H      -12.21993000     -16.61014000      18.24658000
O      -11.45710000     -16.23693000      18.73407000
H      -11.76661000     -15.97989000      19.61573000
