6
Properties=species:S:1:pos:R:3 frame=T 42=T |=T Written=T by=T MDAnalysis=T XYZWriter=T (release=T 2.4.3)=T pbc="F F F"
H       -1.92028000      -0.27034000      -3.78187000
O       -2.12458000      -0.69884000      -2.97247000
H       -2.53637000       0.00437000      -2.48862000
H        0.49900000       0.62953000      -1.85176000
O        0.15572000      -0.27075000      -1.62324000
H       -0.69680000      -0.28170000      -2.07848000
