6
Properties=species:S:1:pos:R:3 frame=T 43=T |=T Written=T by=T MDAnalysis=T XYZWriter=T (release=T 2.4.3)=T pbc="F F F"
H       -9.73523000      -0.40318000       7.92637000
O       -9.44916000       0.35795000       8.41732000
H       -9.84875000       1.12887000       7.96712000
H       -9.83239000      -0.59063000       5.99238000
O      -10.00229000      -0.22004000       5.13433000
H      -10.97175000      -0.17894000       5.13954000
