6
Properties=species:S:1:pos:R:3 frame=T 49=T |=T Written=T by=T MDAnalysis=T XYZWriter=T (release=T 2.4.3)=T pbc="F F F"
H        2.01550000     -17.13467000       8.21589000
O        1.45751000     -16.91969000       8.96215000
H        2.06782000     -16.77933000       9.69814000
H        4.61025000     -17.87309000       7.89338000
O        4.22046000     -16.98906000       8.03067000
H        4.41969000     -16.77161000       8.93971000
