6
Properties=species:S:1:pos:R:3 frame=T 9=T |=T Written=T by=T MDAnalysis=T XYZWriter=T (release=T 2.4.3)=T pbc="F F F"
H       -6.58557000      -0.05591000      -6.37045000
O       -6.93469000      -0.90032000      -6.10356000
H       -7.53555000      -0.63776000      -5.39930000
H       -6.46937000       2.40809000      -5.20791000
O       -5.94359000       1.90058000      -5.84812000
H       -5.38419000       2.56785000      -6.24213000
