6
Properties=species:S:1:pos:R:3 frame=T 43=T |=T Written=T by=T MDAnalysis=T XYZWriter=T (release=T 2.4.3)=T pbc="F F F"
H       -2.35090000     -10.87857000     -15.34137000
O       -2.52681000     -11.13467000     -16.25574000
H       -1.63215000     -11.28768000     -16.59977000
H       -2.26287000     -13.94290000     -16.63510000
O       -2.97047000     -13.93115000     -15.96405000
H       -3.12117000     -12.96578000     -15.98854000
