6
Properties=species:S:1:pos:R:3 frame=T 36=T |=T Written=T by=T MDAnalysis=T XYZWriter=T (release=T 2.4.3)=T pbc="F F F"
H        4.68911000      -7.76154000     -17.22687000
O        3.73968000      -7.56788000     -17.26262000
H        3.30844000      -8.40314000     -17.51162000
H        1.84638000      -6.33625000     -15.69116000
O        2.48448000      -6.90843000     -15.23136000
H        3.12171000      -7.11696000     -15.92740000
