6
Properties=species:S:1:pos:R:3 frame=T 28=T |=T Written=T by=T MDAnalysis=T XYZWriter=T (release=T 2.4.3)=T pbc="F F F"
H       18.91012000      -8.02002000      -5.89755000
O       19.08134000      -7.15514000      -5.51619000
H       18.53563000      -7.17048000      -4.72344000
H       17.36717000      -9.93719000      -3.98193000
O       17.32600000      -8.99354000      -3.71525000
H       16.79310000      -8.58951000      -4.40788000
