6
Properties=species:S:1:pos:R:3 frame=T 50=T |=T Written=T by=T MDAnalysis=T XYZWriter=T (release=T 2.4.3)=T pbc="F F F"
H       12.50913000     -15.77727000     -11.50533000
O       11.90012000     -15.50554000     -12.25171000
H       11.59520000     -16.31354000     -12.67336000
H       12.40127000     -14.08818000     -13.50985000
O       13.24826000     -13.58313000     -13.65936000
H       13.87973000     -14.29408000     -13.72913000
