6
Properties=species:S:1:pos:R:3 frame=T 30=T |=T Written=T by=T MDAnalysis=T XYZWriter=T (release=T 2.4.3)=T pbc="F F F"
H       -4.26944000      16.36057000       1.71146000
O       -5.23441000      16.52974000       1.67248000
H       -5.31141000      16.99341000       0.81378000
H       -2.39179000      15.10487000       1.76928000
O       -2.64658000      15.86309000       1.20175000
H       -3.06110000      15.52662000       0.37937000
