6
Properties=species:S:1:pos:R:3 frame=T 12=T |=T Written=T by=T MDAnalysis=T XYZWriter=T (release=T 2.4.3)=T pbc="F F F"
H      -14.50372000      10.09055000      -4.74434000
O      -14.24423000       9.46295000      -4.04676000
H      -14.98296000       8.85858000      -3.96572000
H      -15.62508000      12.08578000      -4.31699000
O      -15.06564000      11.73482000      -5.00299000
H      -14.12741000      11.88994000      -4.75915000
