6
Properties=species:S:1:pos:R:3 frame=T 40=T |=T Written=T by=T MDAnalysis=T XYZWriter=T (release=T 2.4.3)=T pbc="F F F"
H        5.65395000       4.78938000       7.44999000
O        6.00313000       4.94508000       8.32696000
H        5.64713000       5.82960000       8.47513000
H        6.53483000       1.56461000       8.83822000
O        5.72277000       2.03164000       8.63864000
H        5.95648000       2.91248000       8.31778000
