6
Properties=species:S:1:pos:R:3 frame=T 52=T |=T Written=T by=T MDAnalysis=T XYZWriter=T (release=T 2.4.3)=T pbc="F F F"
H       -3.92703000       0.18089000      11.09765000
O       -4.36335000       0.39606000      10.25592000
H       -3.89164000       1.19369000       9.91162000
H       -5.33435000       3.08471000      12.17610000
O       -4.63226000       2.79359000      11.59872000
H       -4.75403000       1.82736000      11.56466000
