6
Properties=species:S:1:pos:R:3 frame=T 6=T |=T Written=T by=T MDAnalysis=T XYZWriter=T (release=T 2.4.3)=T pbc="F F F"
H       -2.90536000     -16.11901000      12.70891000
O       -2.98749000     -16.85226000      12.07908000
H       -2.37386000     -17.51301000      12.42332000
H       -4.31649000     -17.05388000      10.77186000
O       -4.88543000     -17.48777000      10.05797000
H       -5.38652000     -16.72722000       9.71918000
