6
Properties=species:S:1:pos:R:3 frame=T 22=T |=T Written=T by=T MDAnalysis=T XYZWriter=T (release=T 2.4.3)=T pbc="F F F"
H       -9.77044000       1.68429000     -17.12111000
O      -10.58884000       1.56962000     -16.58780000
H      -10.96045000       0.79227000     -16.97020000
H      -11.94402000       0.47694000     -18.77965000
O      -11.54498000      -0.26816000     -18.26873000
H      -12.28340000      -0.67224000     -17.75564000
