6
Properties=species:S:1:pos:R:3 frame=T 46=T |=T Written=T by=T MDAnalysis=T XYZWriter=T (release=T 2.4.3)=T pbc="F F F"
H        0.99091000      14.65441000      17.21557000
O        1.19058000      15.60475000      17.05525000
H        1.83659000      15.82385000      17.72835000
H        3.91751000      16.65384000      15.96024000
O        3.56233000      15.72996000      15.96333000
H        2.59175000      15.84963000      16.03516000
