6
Properties=species:S:1:pos:R:3 frame=T 31=T |=T Written=T by=T MDAnalysis=T XYZWriter=T (release=T 2.4.3)=T pbc="F F F"
H        4.65861000       3.92569000      -6.54166000
O        4.34455000       3.33834000      -5.86253000
H        3.94235000       2.65915000      -6.39877000
H        2.67181000       5.31875000      -8.42344000
O        2.77713000       4.37214000      -8.35768000
H        3.10861000       4.25638000      -7.48268000
