6
Properties=species:S:1:pos:R:3 frame=T 27=T |=T Written=T by=T MDAnalysis=T XYZWriter=T (release=T 2.4.3)=T pbc="F F F"
H       -2.24079000       3.22691000       0.55949000
O       -2.79534000       3.35012000       1.39110000
H       -2.58359000       4.21802000       1.70520000
H       -1.05240000       3.23037000       2.48928000
O       -0.38372000       3.45719000       3.18308000
H        0.10262000       4.18407000       2.75255000
