6
Properties=species:S:1:pos:R:3 frame=T 54=T |=T Written=T by=T MDAnalysis=T XYZWriter=T (release=T 2.4.3)=T pbc="F F F"
H      -15.06477000     -15.88000000      16.34359000
O      -15.18484000     -15.27675000      17.06616000
H      -15.90144000     -15.72509000      17.53654000
H      -14.08105000     -17.38420000      17.16317000
O      -13.71173000     -17.82035000      16.37273000
H      -12.93522000     -17.28066000      16.16243000
