6
Properties=species:S:1:pos:R:3 frame=T 7=T |=T Written=T by=T MDAnalysis=T XYZWriter=T (release=T 2.4.3)=T pbc="F F F"
H       -5.39100000      -9.89495000      -7.24095000
O       -6.30837000      -9.61975000      -7.35815000
H       -6.25657000      -8.69108000      -7.06957000
H       -6.17919000      -7.15842000      -7.49528000
O       -6.70649000      -6.91539000      -6.69799000
H       -6.01145000      -6.47896000      -6.16266000
