6
Properties=species:S:1:pos:R:3 frame=T 44=T |=T Written=T by=T MDAnalysis=T XYZWriter=T (release=T 2.4.3)=T pbc="F F F"
H        7.86089000      -1.61390000       2.37982000
O        7.28311000      -1.24287000       1.75033000
H        7.83503000      -1.22385000       0.93717000
H        6.29801000      -3.24901000       1.59480000
O        5.46947000      -3.68035000       1.73276000
H        5.64810000      -4.58570000       1.88702000
