6
Properties=species:S:1:pos:R:3 frame=T 3=T |=T Written=T by=T MDAnalysis=T XYZWriter=T (release=T 2.4.3)=T pbc="F F F"
H      -15.54139000       7.47364000      -3.27630000
O      -16.00337000       6.67141000      -3.04983000
H      -16.58638000       6.97484000      -2.32221000
H      -15.63254000       8.91643000      -0.46864000
O      -16.35853000       8.72674000      -1.09087000
H      -16.69267000       9.61975000      -1.27967000
