6
Properties=species:S:1:pos:R:3 frame=T 7=T |=T Written=T by=T MDAnalysis=T XYZWriter=T (release=T 2.4.3)=T pbc="F F F"
H        3.74083000      -6.92154000      17.52869000
O        3.38386000      -6.65882000      16.66889000
H        2.68516000      -6.04883000      16.93534000
H        3.01345000      -8.29935000      17.10628000
O        2.64847000      -9.22683000      17.12692000
H        3.39077000      -9.76529000      16.82131000
