6
Properties=species:S:1:pos:R:3 frame=T 11=T |=T Written=T by=T MDAnalysis=T XYZWriter=T (release=T 2.4.3)=T pbc="F F F"
H       17.16901000      -5.73316000       5.09694000
O       18.00178000      -6.02935000       5.47132000
H       18.19124000      -5.41329000       6.16544000
H       17.35470000      -3.83137000       7.40845000
O       18.23502000      -3.66185000       7.07437000
H       18.05657000      -3.04037000       6.35004000
