6
Properties=species:S:1:pos:R:3 frame=T 6=T |=T Written=T by=T MDAnalysis=T XYZWriter=T (release=T 2.4.3)=T pbc="F F F"
H       11.69368000      -3.46646000       7.50063000
O       12.04151000      -4.23511000       7.92555000
H       12.97632000      -4.13135000       8.06447000
H       10.32660000      -2.66531000       9.13170000
O       10.31407000      -1.90604000       8.51351000
H       11.21351000      -1.56424000       8.40013000
