6
Properties=species:S:1:pos:R:3 frame=T 24=T |=T Written=T by=T MDAnalysis=T XYZWriter=T (release=T 2.4.3)=T pbc="F F F"
H      -15.43222000     -18.14407000       5.45997000
O      -15.37904000     -17.33159000       4.92912000
H      -16.26083000     -17.32498000       4.54663000
H      -17.16071000     -17.78164000       1.44195000
O      -17.18811000     -17.84799000       2.39107000
H      -17.85072000     -18.54686000       2.50588000
