6
Properties=species:S:1:pos:R:3 frame=T 29=T |=T Written=T by=T MDAnalysis=T XYZWriter=T (release=T 2.4.3)=T pbc="F F F"
H       10.57180000      18.11316000       3.62161000
O        9.73718000      18.28518000       4.12953000
H        9.04443000      18.12910000       3.48339000
H       12.81316000      18.45890000       2.21119000
O       12.02606000      18.40394000       1.65778000
H       12.35836000      18.66278000       0.79566000
