6
Properties=species:S:1:pos:R:3 frame=T 36=T |=T Written=T by=T MDAnalysis=T XYZWriter=T (release=T 2.4.3)=T pbc="F F F"
H        5.28883000      17.06063000       9.00357000
O        6.11929000      16.98571000       8.46334000
H        5.82459000      16.54170000       7.65426000
H        9.12287000      19.34587000       7.85789000
O        8.76414000      18.43314000       8.01294000
H        7.83186000      18.49466000       7.82469000
