6
Properties=species:S:1:pos:R:3 frame=T 54=T |=T Written=T by=T MDAnalysis=T XYZWriter=T (release=T 2.4.3)=T pbc="F F F"
H        1.77722000     -17.39354000      -0.57696000
O        1.51940000     -17.93599000       0.16344000
H        1.06052000     -17.33882000       0.79335000
H        0.25137000     -15.67997000      -0.19178000
O        1.01770000     -15.21042000      -0.52374000
H        1.58009000     -15.05532000       0.23175000
