6
Properties=species:S:1:pos:R:3 frame=T 41=T |=T Written=T by=T MDAnalysis=T XYZWriter=T (release=T 2.4.3)=T pbc="F F F"
H        0.09931000     -17.82069000     -11.79624000
O       -0.45533000     -18.49234000     -11.39413000
H       -0.14745000     -19.35252000     -11.70554000
H       -2.90510000     -18.16569000     -14.14496000
O       -2.04940000     -17.70701000     -14.08066000
H       -1.77507000     -17.82331000     -13.16465000
