6
Properties=species:S:1:pos:R:3 frame=T 52=T |=T Written=T by=T MDAnalysis=T XYZWriter=T (release=T 2.4.3)=T pbc="F F F"
H      -11.36974000      -7.14518000      17.77840000
O      -10.62760000      -6.87441000      18.33501000
H      -10.95725000      -6.10751000      18.82226000
H      -12.84566000      -4.81013000      17.41437000
O      -13.12415000      -5.57462000      17.95402000
H      -13.96323000      -5.27024000      18.34551000
