6
Properties=species:S:1:pos:R:3 frame=T 49=T |=T Written=T by=T MDAnalysis=T XYZWriter=T (release=T 2.4.3)=T pbc="F F F"
H      -12.45834000       8.72860000       8.13855000
O      -12.58372000       7.96562000       8.76054000
H      -12.42021000       8.34362000       9.64628000
H      -15.47181000       8.16353000       9.60365000
O      -15.23033000       8.63691000       8.79344000
H      -14.31961000       8.37615000       8.64773000
