6
Properties=species:S:1:pos:R:3 frame=T 28=T |=T Written=T by=T MDAnalysis=T XYZWriter=T (release=T 2.4.3)=T pbc="F F F"
H      -15.48831000     -15.86389000       0.21330000
O      -15.49154000     -16.72076000      -0.15536000
H      -15.33045000     -17.28065000       0.62980000
H      -12.80739000     -16.03621000      -1.07028000
O      -13.47968000     -16.22503000      -1.73299000
H      -14.30328000     -16.22290000      -1.22815000
