6
Properties=species:S:1:pos:R:3 frame=T 18=T |=T Written=T by=T MDAnalysis=T XYZWriter=T (release=T 2.4.3)=T pbc="F F F"
H       -1.15859000      17.41913000     -14.44551000
O       -0.43994000      17.19719000     -13.86170000
H       -0.03322000      16.44402000     -14.27004000
H       -2.43887000      19.33374000     -15.66737000
O       -2.69520000      18.42880000     -15.77685000
H       -2.14945000      18.15024000     -16.55737000
