6
Properties=species:S:1:pos:R:3 frame=T 42=T |=T Written=T by=T MDAnalysis=T XYZWriter=T (release=T 2.4.3)=T pbc="F F F"
H       16.29719000       6.41165000     -15.33370000
O       16.37827000       5.48793000     -15.07296000
H       15.99118000       5.45590000     -14.17312000
H       15.44293000       6.65068000     -12.69675000
O       15.71399000       5.76097000     -12.36432000
H       14.86662000       5.25918000     -12.30737000
