6
Properties=species:S:1:pos:R:3 frame=T 54=T |=T Written=T by=T MDAnalysis=T XYZWriter=T (release=T 2.4.3)=T pbc="F F F"
H       -0.00688000       2.21040000       4.21930000
O        0.66856000       1.90593000       4.83033000
H        1.33686000       1.59547000       4.22471000
H        0.96740000       2.10104000       6.70074000
O        1.48573000       1.78765000       7.46531000
H        0.81086000       1.62371000       8.12805000
