6
Properties=species:S:1:pos:R:3 frame=T 52=T |=T Written=T by=T MDAnalysis=T XYZWriter=T (release=T 2.4.3)=T pbc="F F F"
H      -10.59168000     -10.75738000       2.74551000
O      -10.45765000     -10.14841000       3.49004000
H      -11.34952000      -9.77857000       3.60184000
H      -10.33499000     -10.66664000       5.50117000
O      -10.50474000     -10.56977000       6.46850000
H       -9.82539000     -11.11802000       6.88264000
