6
Properties=species:S:1:pos:R:3 frame=T 7=T |=T Written=T by=T MDAnalysis=T XYZWriter=T (release=T 2.4.3)=T pbc="F F F"
H       13.72271000       3.72321000     -18.10600000
O       13.61098000       4.38254000     -17.40498000
H       13.36893000       5.21571000     -17.82592000
H       11.01210000       6.03895000     -18.98333000
O       11.88078000       6.38302000     -18.96295000
H       11.82998000       7.08728000     -18.32367000
