6
Properties=species:S:1:pos:R:3 frame=T 25=T |=T Written=T by=T MDAnalysis=T XYZWriter=T (release=T 2.4.3)=T pbc="F F F"
H      -13.22400000     -16.54140000      -0.17788000
O      -13.31697000     -16.48363000       0.79340000
H      -13.39717000     -17.41332000       1.01755000
H      -12.92973000     -15.27715000       2.33118000
O      -12.71178000     -15.23998000       3.24891000
H      -13.51482000     -14.92840000       3.66471000
