6
Properties=species:S:1:pos:R:3 frame=T 9=T |=T Written=T by=T MDAnalysis=T XYZWriter=T (release=T 2.4.3)=T pbc="F F F"
H       18.72167000      -6.27994000       3.34710000
O       19.21990000      -6.27732000       4.19091000
H       18.62592000      -5.73513000       4.74145000
H       18.30503000      -7.69278000       5.02572000
O       18.31121000      -8.65922000       5.05550000
H       19.24648000      -8.93773000       5.06437000
