6
Properties=species:S:1:pos:R:3 frame=T 6=T |=T Written=T by=T MDAnalysis=T XYZWriter=T (release=T 2.4.3)=T pbc="F F F"
H       -0.54177000      -8.63574000      -4.59742000
O       -1.23183000      -9.19448000      -4.25707000
H       -0.73107000     -10.03166000      -4.23717000
H       -2.86549000      -8.99835000      -5.44276000
O       -3.74707000      -8.66811000      -5.62805000
H       -3.74185000      -8.48662000      -6.57737000
