6
Properties=species:S:1:pos:R:3 frame=T 41=T |=T Written=T by=T MDAnalysis=T XYZWriter=T (release=T 2.4.3)=T pbc="F F F"
H       15.24292000       8.44464000       3.76120000
O       15.22136000       9.40015000       3.97347000
H       15.47583000       9.43433000       4.90089000
H       16.40409000       8.21855000       7.08906000
O       16.76672000       8.48692000       6.23403000
H       17.61690000       8.01327000       6.14547000
