6
Properties=species:S:1:pos:R:3 frame=T 44=T |=T Written=T by=T MDAnalysis=T XYZWriter=T (release=T 2.4.3)=T pbc="F F F"
H       11.21049000     -13.82934000      12.09598000
O       12.05350000     -13.44531000      12.31290000
H       11.82404000     -13.00719000      13.11973000
H       13.83098000     -14.04753000      11.68228000
O       14.68370000     -14.00493000      11.25250000
H       14.55087000     -13.52934000      10.42644000
