6
Properties=species:S:1:pos:R:3 frame=T 30=T |=T Written=T by=T MDAnalysis=T XYZWriter=T (release=T 2.4.3)=T pbc="F F F"
H       -7.38654000     -14.63534000      -2.68842000
O       -7.54928000     -14.56984000      -3.65313000
H       -7.82797000     -15.44723000      -3.89863000
H       -6.42983000     -16.38338000      -1.79469000
O       -5.66064000     -16.85893000      -2.10653000
H       -5.79525000     -17.74549000      -1.75648000
