6
Properties=species:S:1:pos:R:3 frame=T 49=T |=T Written=T by=T MDAnalysis=T XYZWriter=T (release=T 2.4.3)=T pbc="F F F"
H       -8.38411000      18.65253000      -2.85481000
O       -7.58688000      18.10380000      -2.76319000
H       -7.76292000      17.39962000      -3.42889000
H      -10.29932000      19.03934000      -4.20139000
O      -10.00799000      18.66364000      -3.36700000
H      -10.23641000      19.36135000      -2.73358000
