6
Properties=species:S:1:pos:R:3 frame=T 48=T |=T Written=T by=T MDAnalysis=T XYZWriter=T (release=T 2.4.3)=T pbc="F F F"
H       15.09667000      18.57669000      13.45012000
O       15.22618000      17.77005000      12.99247000
H       15.30462000      18.07887000      12.08853000
H       17.92427000      18.19645000      14.49598000
O       17.51251000      17.54260000      15.07280000
H       16.61062000      17.84852000      15.07990000
