6
Properties=species:S:1:pos:R:3 frame=T 50=T |=T Written=T by=T MDAnalysis=T XYZWriter=T (release=T 2.4.3)=T pbc="F F F"
H      -12.66482000      12.76558000      11.30536000
O      -12.89017000      12.07864000      11.93938000
H      -13.65095000      11.65870000      11.51736000
H      -14.76752000      10.33615000      10.33216000
O      -14.86411000      11.28477000      10.52035000
H      -14.88239000      11.68698000       9.64716000
