6
Properties=species:S:1:pos:R:3 frame=T 32=T |=T Written=T by=T MDAnalysis=T XYZWriter=T (release=T 2.4.3)=T pbc="F F F"
H      -12.72177000     -14.51197000     -11.91326000
O      -13.18006000     -14.08064000     -12.67207000
H      -14.09810000     -14.18801000     -12.41744000
H      -13.12504000     -15.26434000     -10.18129000
O      -12.31417000     -15.41362000     -10.67247000
H      -11.64052000     -15.53169000      -9.99577000
