6
Properties=species:S:1:pos:R:3 frame=T 34=T |=T Written=T by=T MDAnalysis=T XYZWriter=T (release=T 2.4.3)=T pbc="F F F"
H       -1.34961000      16.51303000     -16.93366000
O       -0.90962000      16.74733000     -16.10864000
H       -0.48706000      15.95422000     -15.83226000
H       -3.10622000      15.47901000     -14.07739000
O       -3.07184000      16.11386000     -14.80499000
H       -2.16208000      16.01354000     -15.11622000
