6
Properties=species:S:1:pos:R:3 frame=T 27=T |=T Written=T by=T MDAnalysis=T XYZWriter=T (release=T 2.4.3)=T pbc="F F F"
H        1.47005000     -13.33277000     -17.68359000
O        0.96034000     -14.00332000     -18.16977000
H        0.60295000     -13.52199000     -18.92720000
H       -0.93783000     -14.96494000     -17.62693000
O       -1.89972000     -15.11114000     -17.46259000
H       -2.31199000     -14.34707000     -17.88182000
