6
Properties=species:S:1:pos:R:3 frame=T 33=T |=T Written=T by=T MDAnalysis=T XYZWriter=T (release=T 2.4.3)=T pbc="F F F"
H       15.48742000     -17.05492000      -7.01659000
O       15.66652000     -17.27541000      -7.94088000
H       15.32928000     -18.19095000      -7.99749000
H       14.85262000     -16.38157000      -9.18741000
O       14.12613000     -16.25218000      -9.80873000
H       13.30550000     -16.45981000      -9.31837000
