6
Properties=species:S:1:pos:R:3 frame=T 16=T |=T Written=T by=T MDAnalysis=T XYZWriter=T (release=T 2.4.3)=T pbc="F F F"
H        4.67105000     -16.79115000      -7.85861000
O        5.46256000     -16.28864000      -7.69023000
H        6.16571000     -16.82991000      -8.05099000
H        3.76502000     -19.08991000      -7.90601000
O        3.68129000     -18.65881000      -7.05881000
H        4.53447000     -18.68389000      -6.66668000
