6
Properties=species:S:1:pos:R:3 frame=T 34=T |=T Written=T by=T MDAnalysis=T XYZWriter=T (release=T 2.4.3)=T pbc="F F F"
H      -10.96727000     -12.69097000     -10.26212000
O      -10.37184000     -13.42926000     -10.32671000
H      -10.87695000     -14.11430000      -9.85555000
H      -10.54706000     -15.37691000     -11.45502000
O      -10.93758000     -16.10458000     -11.90590000
H      -10.33033000     -16.84796000     -11.71143000
