6
Properties=species:S:1:pos:R:3 frame=T 43=T |=T Written=T by=T MDAnalysis=T XYZWriter=T (release=T 2.4.3)=T pbc="F F F"
H       -8.54415000       3.67826000      10.14286000
O       -8.90533000       3.58486000      11.01016000
H       -8.81929000       4.48477000      11.38272000
H      -10.99981000       4.70447000      10.92407000
O      -11.67345000       4.86758000      10.27736000
H      -12.50045000       4.87801000      10.72524000
