6
Properties=species:S:1:pos:R:3 frame=T 5=T |=T Written=T by=T MDAnalysis=T XYZWriter=T (release=T 2.4.3)=T pbc="F F F"
H      -11.90533000       3.65776000      10.60438000
O      -11.57156000       3.84414000       9.70110000
H      -12.38672000       4.04007000       9.17179000
H      -11.22762000       6.82479000       9.66550000
O      -10.52231000       6.21889000      10.00062000
H      -10.96293000       5.34621000       9.93089000
