6
Properties=species:S:1:pos:R:3 frame=T 18=T |=T Written=T by=T MDAnalysis=T XYZWriter=T (release=T 2.4.3)=T pbc="F F F"
H      -15.43727000       6.63691000      -2.05289000
O      -15.01241000       7.44796000      -2.35551000
H      -15.51014000       8.16465000      -1.87706000
H      -16.46726000       8.91378000       0.38921000
O      -15.55624000       9.23817000       0.39406000
H      -15.04041000       8.53694000      -0.03579000
