6
Properties=species:S:1:pos:R:3 frame=T 53=T |=T Written=T by=T MDAnalysis=T XYZWriter=T (release=T 2.4.3)=T pbc="F F F"
H       -8.31063000      -6.01076000      -3.91130000
O       -8.70633000      -5.83635000      -4.74602000
H       -9.46858000      -6.41037000      -4.69637000
H       -6.30054000      -5.66962000      -7.23606000
O       -7.24029000      -5.99061000      -7.21516000
H       -7.52388000      -5.81057000      -6.32788000
