6
Properties=species:S:1:pos:R:3 frame=T 4=T |=T Written=T by=T MDAnalysis=T XYZWriter=T (release=T 2.4.3)=T pbc="F F F"
H       13.47383000      18.64810000       1.60489000
O       12.62817000      18.36162000       2.01092000
H       12.15349000      18.00831000       1.23178000
H       10.97277000      17.07774000       3.11578000
O       11.37679000      16.17804000       3.18864000
H       12.26974000      16.36013000       2.84963000
