6
Properties=species:S:1:pos:R:3 frame=T 27=T |=T Written=T by=T MDAnalysis=T XYZWriter=T (release=T 2.4.3)=T pbc="F F F"
H      -14.21021000      -9.69235000      -3.46090000
O      -14.81323000      -8.93812000      -3.55793000
H      -14.62079000      -8.56617000      -4.43936000
H      -12.03306000      -7.96313000      -2.25149000
O      -12.75374000      -7.41137000      -2.62121000
H      -13.44956000      -8.05288000      -2.85949000
