6
Properties=species:S:1:pos:R:3 frame=T 33=T |=T Written=T by=T MDAnalysis=T XYZWriter=T (release=T 2.4.3)=T pbc="F F F"
H      -14.75246000       4.87970000      12.82917000
O      -14.66364000       4.89621000      11.84997000
H      -14.21113000       4.05270000      11.61991000
H      -13.85715000       6.47069000      10.95536000
O      -13.66864000       7.34982000      10.56400000
H      -13.72151000       7.24873000       9.59215000
