6
Properties=species:S:1:pos:R:3 frame=T 46=T |=T Written=T by=T MDAnalysis=T XYZWriter=T (release=T 2.4.3)=T pbc="F F F"
H       -6.14423000      -6.80432000       1.78864000
O       -5.42192000      -6.68798000       1.17222000
H       -4.93057000      -5.91226000       1.53643000
H       -7.49960000      -8.01670000       2.29095000
O       -7.53351000      -8.62803000       1.55349000
H       -6.66198000      -8.61468000       1.15600000
