6
Properties=species:S:1:pos:R:3 frame=T 5=T |=T Written=T by=T MDAnalysis=T XYZWriter=T (release=T 2.4.3)=T pbc="F F F"
H       15.23847000      -8.36357000       6.65663000
O       15.83252000      -7.60268000       6.62187000
H       16.65732000      -7.97320000       6.24728000
H       12.97703000      -8.78802000       6.02885000
O       13.42106000      -9.23131000       6.75716000
H       12.73201000      -9.31651000       7.42627000
