6
Properties=species:S:1:pos:R:3 frame=T 32=T |=T Written=T by=T MDAnalysis=T XYZWriter=T (release=T 2.4.3)=T pbc="F F F"
H        0.35128000     -15.13138000      -3.80456000
O        0.14340000     -15.82869000      -3.15890000
H       -0.20976000     -16.50104000      -3.75794000
H       -1.28964000     -17.82335000      -4.51926000
O       -0.91324000     -18.20392000      -3.71197000
H       -0.03253000     -18.47532000      -4.01095000
