6
Properties=species:S:1:pos:R:3 frame=T 29=T |=T Written=T by=T MDAnalysis=T XYZWriter=T (release=T 2.4.3)=T pbc="F F F"
H       -3.33533000      -9.50502000      17.98402000
O       -3.77399000      -8.71015000      17.63551000
H       -3.21507000      -8.48047000      16.90876000
H       -0.46448000      -8.56522000      17.58010000
O       -1.02910000      -7.77277000      17.44016000
H       -1.34292000      -7.89456000      16.56176000
