6
Properties=species:S:1:pos:R:3 frame=T 1=T |=T Written=T by=T MDAnalysis=T XYZWriter=T (release=T 2.4.3)=T pbc="F F F"
H      -18.15474000      17.09738000     -19.09610000
O      -18.45234000      17.51088000     -18.28353000
H      -18.18743000      16.93905000     -17.55736000
H      -16.40862000      17.24530000     -17.48397000
O      -15.88147000      16.45066000     -17.69396000
H      -15.53000000      16.20007000     -16.86739000
