6
Properties=species:S:1:pos:R:3 frame=T 2=T |=T Written=T by=T MDAnalysis=T XYZWriter=T (release=T 2.4.3)=T pbc="F F F"
H      -10.72267000      -7.34738000      -9.13377000
O      -10.18973000      -7.16500000      -9.90383000
H      -10.86519000      -7.01965000     -10.57663000
H      -12.11782000      -5.41513000     -11.94436000
O      -12.48316000      -6.21546000     -11.54813000
H      -13.19502000      -6.39118000     -12.16489000
