6
Properties=species:S:1:pos:R:3 frame=T 39=T |=T Written=T by=T MDAnalysis=T XYZWriter=T (release=T 2.4.3)=T pbc="F F F"
H       -5.46385000     -11.15572000     -16.36054000
O       -4.67221000     -10.81581000     -15.95890000
H       -4.06244000     -10.73054000     -16.70304000
H       -5.03723000      -8.99092000     -15.27190000
O       -5.77677000      -8.36008000     -15.16754000
H       -6.43396000      -8.65110000     -15.83831000
