6
Properties=species:S:1:pos:R:3 frame=T 25=T |=T Written=T by=T MDAnalysis=T XYZWriter=T (release=T 2.4.3)=T pbc="F F F"
H        6.71097000       7.16651000       7.04343000
O        7.15987000       6.37865000       6.69980000
H        7.31771000       6.61403000       5.76758000
H        8.35749000       6.92783000       4.40555000
O        8.05562000       6.18900000       3.87044000
H        7.14666000       6.45308000       3.66713000
