6
Properties=species:S:1:pos:R:3 frame=T 25=T |=T Written=T by=T MDAnalysis=T XYZWriter=T (release=T 2.4.3)=T pbc="F F F"
H        1.96128000       8.68489000       9.31001000
O        1.55937000       9.15939000      10.04650000
H        0.94934000       8.51007000      10.39584000
H       -0.56658000       7.13022000       9.86702000
O       -0.76528000       7.98267000      10.28777000
H       -0.72025000       7.75957000      11.22447000
