6
Properties=species:S:1:pos:R:3 frame=T 18=T |=T Written=T by=T MDAnalysis=T XYZWriter=T (release=T 2.4.3)=T pbc="F F F"
H      -18.11938000      -5.93577000       3.53274000
O      -18.60251000      -5.42084000       2.88507000
H      -19.33927000      -6.01912000       2.64462000
H      -16.96618000      -5.75218000       1.30412000
O      -16.07558000      -5.82512000       0.95121000
H      -15.65393000      -5.09481000       1.41707000
