6
Properties=species:S:1:pos:R:3 frame=T 14=T |=T Written=T by=T MDAnalysis=T XYZWriter=T (release=T 2.4.3)=T pbc="F F F"
H       15.96714000       4.04535000      -5.09815000
O       15.58867000       3.17672000      -5.32522000
H       15.97675000       2.57136000      -4.65452000
H       16.52593000       2.88615000      -2.61273000
O       16.33935000       1.99474000      -2.95305000
H       15.48702000       1.74222000      -2.56109000
