6
Properties=species:S:1:pos:R:3 frame=T 16=T |=T Written=T by=T MDAnalysis=T XYZWriter=T (release=T 2.4.3)=T pbc="F F F"
H       -1.73658000     -10.74958000       7.73338000
O       -1.43821000     -10.47113000       6.86734000
H       -2.14185000     -10.76787000       6.26584000
H        0.20914000      -9.56218000       7.68071000
O        0.74550000      -9.86173000       8.39988000
H        1.29276000      -9.12402000       8.62444000
