6
Properties=species:S:1:pos:R:3 frame=T 45=T |=T Written=T by=T MDAnalysis=T XYZWriter=T (release=T 2.4.3)=T pbc="F F F"
H      -12.64135000       4.79017000       1.18498000
O      -12.33394000       4.13150000       0.56945000
H      -11.48296000       4.49415000       0.23411000
H      -13.69497000       3.56300000      -0.82987000
O      -14.55589000       3.54843000      -1.25894000
H      -14.85766000       2.65610000      -1.08845000
