6
Properties=species:S:1:pos:R:3 frame=T 47=T |=T Written=T by=T MDAnalysis=T XYZWriter=T (release=T 2.4.3)=T pbc="F F F"
H       -2.07019000     -14.21144000       3.50750000
O       -2.09044000     -14.95824000       4.14616000
H       -2.32182000     -15.73568000       3.61104000
H       -1.08036000     -13.23109000       1.50821000
O       -0.83127000     -13.02599000       2.42131000
H       -0.40510000     -12.17412000       2.28640000
