6
Properties=species:S:1:pos:R:3 frame=T 32=T |=T Written=T by=T MDAnalysis=T XYZWriter=T (release=T 2.4.3)=T pbc="F F F"
H       -0.90485000     -10.89176000     -13.88618000
O       -0.33750000     -10.54128000     -14.55956000
H       -0.80951000     -10.79692000     -15.36796000
H       -2.76102000     -11.58915000     -13.25124000
O       -2.55284000     -12.01400000     -14.06526000
H       -2.56232000     -12.99109000     -13.94107000
