6
Properties=species:S:1:pos:R:3 frame=T 43=T |=T Written=T by=T MDAnalysis=T XYZWriter=T (release=T 2.4.3)=T pbc="F F F"
H       10.38586000      -0.32084000      -8.86397000
O       10.96118000      -1.00719000      -8.49425000
H       10.48357000      -1.81014000      -8.72051000
H        8.72657000      -1.77508000      -9.37857000
O        8.06485000      -1.18025000      -8.99095000
H        8.31488000      -0.34057000      -9.42321000
