6
Properties=species:S:1:pos:R:3 frame=T 49=T |=T Written=T by=T MDAnalysis=T XYZWriter=T (release=T 2.4.3)=T pbc="F F F"
H       -8.31200000       0.93543000       6.50985000
O       -8.12561000      -0.01921000       6.46871000
H       -8.53702000      -0.33792000       7.29028000
H       -7.14812000       0.25219000       8.19699000
O       -7.03051000       1.01848000       8.79337000
H       -6.97041000       1.79020000       8.21036000
