6
Properties=species:S:1:pos:R:3 frame=T 50=T |=T Written=T by=T MDAnalysis=T XYZWriter=T (release=T 2.4.3)=T pbc="F F F"
H       -9.69374000      11.31550000      -6.85514000
O       -8.88080000      11.37713000      -7.39150000
H       -9.07223000      12.09987000      -8.01609000
H       -9.08674000      12.68482000      -3.44468000
O       -9.88763000      12.58964000      -4.01300000
H       -9.54983000      12.29527000      -4.87706000
