6
Properties=species:S:1:pos:R:3 frame=T 34=T |=T Written=T by=T MDAnalysis=T XYZWriter=T (release=T 2.4.3)=T pbc="F F F"
H       17.85764000      10.29370000      19.13046000
O       17.78822000      11.12960000      18.64738000
H       17.20172000      10.91293000      17.92878000
H       19.00640000      13.40895000      18.16733000
O       18.57597000      14.20433000      18.46614000
H       18.47497000      13.94980000      19.38909000
