6
Properties=species:S:1:pos:R:3 frame=T 17=T |=T Written=T by=T MDAnalysis=T XYZWriter=T (release=T 2.4.3)=T pbc="F F F"
H        6.24474000      17.60489000      13.42045000
O        6.40927000      17.68149000      14.36488000
H        6.40113000      18.64628000      14.47614000
H        4.12004000      19.14168000      15.50571000
O        3.28905000      18.61569000      15.46492000
H        2.71491000      19.26320000      15.06325000
