6
Properties=species:S:1:pos:R:3 frame=T 13=T |=T Written=T by=T MDAnalysis=T XYZWriter=T (release=T 2.4.3)=T pbc="F F F"
H        9.86761000      -1.31919000      -4.12969000
O        9.36804000      -1.25897000      -4.93846000
H        9.90407000      -0.59737000      -5.39017000
H        8.16455000      -4.87974000      -5.24170000
O        7.79016000      -3.99551000      -5.42592000
H        8.35312000      -3.42245000      -4.84758000
