6
Properties=species:S:1:pos:R:3 frame=T 29=T |=T Written=T by=T MDAnalysis=T XYZWriter=T (release=T 2.4.3)=T pbc="F F F"
H      -17.27501000     -17.91751000       1.47669000
O      -16.50677000     -18.18457000       2.01105000
H      -16.35428000     -17.43062000       2.57221000
H      -13.81998000     -17.24312000       1.43448000
O      -13.86139000     -16.24921000       1.49361000
H      -13.06329000     -16.04129000       1.94560000
