6
Properties=species:S:1:pos:R:3 frame=T 30=T |=T Written=T by=T MDAnalysis=T XYZWriter=T (release=T 2.4.3)=T pbc="F F F"
H       -3.46903000      -1.87837000       6.96728000
O       -3.49379000      -2.01635000       7.91083000
H       -3.74740000      -1.16731000       8.27469000
H       -4.25960000       0.64100000      10.22952000
O       -4.99002000       0.16166000       9.83950000
H       -4.93942000       0.44780000       8.91221000
