6
Properties=species:S:1:pos:R:3 frame=T 20=T |=T Written=T by=T MDAnalysis=T XYZWriter=T (release=T 2.4.3)=T pbc="F F F"
H        6.92086000     -14.12298000      12.57935000
O        7.14822000     -14.41197000      13.45476000
H        7.44275000     -15.32213000      13.30428000
H        7.65205000     -14.03818000      15.31412000
O        7.99483000     -13.70289000      16.12909000
H        7.80236000     -14.39511000      16.76419000
