6
Properties=species:S:1:pos:R:3 frame=T 5=T |=T Written=T by=T MDAnalysis=T XYZWriter=T (release=T 2.4.3)=T pbc="F F F"
H        6.22636000       6.45408000      -6.09131000
O        6.16411000       5.82523000      -5.35927000
H        5.51082000       6.16251000      -4.72020000
H        7.64250000       7.87183000      -7.53888000
O        6.89186000       7.60812000      -7.00041000
H        7.17723000       7.94746000      -6.13058000
