6
Properties=species:S:1:pos:R:3 frame=T 12=T |=T Written=T by=T MDAnalysis=T XYZWriter=T (release=T 2.4.3)=T pbc="F F F"
H       -1.10296000      17.06631000      -9.66517000
O       -1.16595000      18.01362000      -9.80018000
H       -2.07092000      18.18461000     -10.00254000
H       -3.94753000      18.44293000      -9.91231000
O       -3.62070000      18.08187000     -10.72785000
H       -3.58498000      18.90187000     -11.25126000
