6
Properties=species:S:1:pos:R:3 frame=T 54=T |=T Written=T by=T MDAnalysis=T XYZWriter=T (release=T 2.4.3)=T pbc="F F F"
H       -6.33627000      -3.14836000      -8.89199000
O       -5.83986000      -3.54007000      -8.15096000
H       -5.48833000      -4.35151000      -8.55489000
H       -5.38102000      -1.69006000      -7.39234000
O       -4.71778000      -1.07999000      -7.09490000
H       -4.81835000      -1.08620000      -6.14687000
