6
Properties=species:S:1:pos:R:3 frame=T 32=T |=T Written=T by=T MDAnalysis=T XYZWriter=T (release=T 2.4.3)=T pbc="F F F"
H        0.86098000      -6.47082000       8.60699000
O        1.80829000      -6.34459000       8.43265000
H        1.98154000      -5.39343000       8.35333000
H        3.04414000      -4.84056000       5.64430000
O        3.83957000      -5.26199000       6.05385000
H        3.46889000      -5.81355000       6.74850000
