6
Properties=species:S:1:pos:R:3 frame=T 50=T |=T Written=T by=T MDAnalysis=T XYZWriter=T (release=T 2.4.3)=T pbc="F F F"
H       16.15363000     -14.32206000     -10.41646000
O       16.20348000     -14.72357000      -9.53337000
H       15.65521000     -14.12097000      -8.99265000
H       17.94148000     -15.43681000      -9.25495000
O       18.88224000     -15.16872000      -9.30752000
H       18.82502000     -14.21450000      -9.39862000
