6
Properties=species:S:1:pos:R:3 frame=T 1=T |=T Written=T by=T MDAnalysis=T XYZWriter=T (release=T 2.4.3)=T pbc="F F F"
H        2.06590000       8.73481000       0.70934000
O        2.37846000       9.54235000       0.29693000
H        3.16568000       9.26363000      -0.20664000
H        3.39580000       9.89489000       1.84266000
O        4.14185000      10.24603000       2.33367000
H        4.49814000      10.92679000       1.77973000
