6
Properties=species:S:1:pos:R:3 frame=T 12=T |=T Written=T by=T MDAnalysis=T XYZWriter=T (release=T 2.4.3)=T pbc="F F F"
H      -15.16712000       2.46184000      14.63790000
O      -15.45115000       2.80305000      13.79589000
H      -16.09326000       3.45897000      14.03769000
H      -15.84915000       2.10775000      12.04459000
O      -15.59693000       1.45241000      11.38797000
H      -15.97988000       1.80402000      10.58184000
