6
Properties=species:S:1:pos:R:3 frame=T 15=T |=T Written=T by=T MDAnalysis=T XYZWriter=T (release=T 2.4.3)=T pbc="F F F"
H       -3.65856000       5.34884000     -15.34441000
O       -4.09177000       4.73829000     -15.95520000
H       -4.64087000       5.27578000     -16.54914000
H       -6.13024000       4.79924000     -18.84215000
O       -5.89340000       5.45189000     -18.19489000
H       -5.30172000       6.07089000     -18.62222000
