6
Properties=species:S:1:pos:R:3 frame=T 39=T |=T Written=T by=T MDAnalysis=T XYZWriter=T (release=T 2.4.3)=T pbc="F F F"
H       -2.83815000     -16.53238000      18.05519000
O       -2.42439000     -15.68412000      17.93662000
H       -1.93746000     -15.52886000      18.75070000
H       -3.22419000     -17.94556000      16.64289000
O       -3.09004000     -17.51515000      15.82193000
H       -2.74034000     -16.65642000      16.08493000
