6
Properties=species:S:1:pos:R:3 frame=T 39=T |=T Written=T by=T MDAnalysis=T XYZWriter=T (release=T 2.4.3)=T pbc="F F F"
H        9.36856000       6.76419000     -17.15322000
O       10.00471000       7.48593000     -16.98349000
H        9.90066000       7.63372000     -16.02432000
H       11.57274000       5.17878000     -17.55721000
O       11.97104000       5.95210000     -17.97999000
H       11.45046000       6.67998000     -17.62022000
