6
Properties=species:S:1:pos:R:3 frame=T 9=T |=T Written=T by=T MDAnalysis=T XYZWriter=T (release=T 2.4.3)=T pbc="F F F"
H       17.18796000      17.22707000      17.74506000
O       16.74785000      16.51238000      17.28674000
H       16.46581000      16.89801000      16.44410000
H       18.48926000      19.18266000      16.51343000
O       18.51765000      18.97037000      17.46133000
H       19.19811000      18.27396000      17.51691000
