6
Properties=species:S:1:pos:R:3 frame=T 49=T |=T Written=T by=T MDAnalysis=T XYZWriter=T (release=T 2.4.3)=T pbc="F F F"
H        3.78250000     -14.88876000       2.55130000
O        2.92538000     -14.61152000       2.18104000
H        2.42946000     -14.27689000       2.92979000
H        2.61557000     -14.06217000       0.35451000
O        2.80267000     -13.61152000      -0.47386000
H        3.04213000     -14.27619000      -1.13100000
