6
Properties=species:S:1:pos:R:3 frame=T 23=T |=T Written=T by=T MDAnalysis=T XYZWriter=T (release=T 2.4.3)=T pbc="F F F"
H       -2.48843000      16.28674000      14.90096000
O       -1.58951000      16.57123000      14.68829000
H       -1.69143000      17.25902000      14.04059000
H       -0.41959000      17.93750000      11.74490000
O       -0.44581000      17.81898000      12.69681000
H        0.38333000      18.17674000      12.98562000
