6
Properties=species:S:1:pos:R:3 frame=T 7=T |=T Written=T by=T MDAnalysis=T XYZWriter=T (release=T 2.4.3)=T pbc="F F F"
H      -12.83713000       2.02852000      11.19597000
O      -13.34239000       1.47557000      10.57369000
H      -12.95264000       0.56503000      10.65959000
H      -10.82510000       2.85695000      11.96392000
O      -11.65812000       2.72427000      12.43051000
H      -11.61145000       1.85535000      12.81057000
