6
Properties=species:S:1:pos:R:3 frame=T 29=T |=T Written=T by=T MDAnalysis=T XYZWriter=T (release=T 2.4.3)=T pbc="F F F"
H        8.35505000      10.95544000      15.30961000
O        8.37219000      11.86551000      14.96201000
H        7.60266000      11.94122000      14.39769000
H        5.46263000      11.79232000      16.44619000
O        5.17589000      12.13640000      15.58944000
H        5.96344000      12.07951000      15.03502000
