6
Properties=species:S:1:pos:R:3 frame=T 17=T |=T Written=T by=T MDAnalysis=T XYZWriter=T (release=T 2.4.3)=T pbc="F F F"
H      -17.12274000     -15.23407000      -4.02528000
O      -17.58310000     -15.32805000      -4.89512000
H      -17.86069000     -14.41735000      -5.01392000
H      -18.34440000     -12.18904000      -5.68725000
O      -17.95116000     -12.60980000      -4.95208000
H      -17.03773000     -12.78555000      -5.25563000
