6
Properties=species:S:1:pos:R:3 frame=T 30=T |=T Written=T by=T MDAnalysis=T XYZWriter=T (release=T 2.4.3)=T pbc="F F F"
H      -12.54597000      17.77144000      16.97917000
O      -12.70729000      17.15136000      17.70728000
H      -13.09695000      16.42297000      17.25800000
H      -15.92017000      16.97620000      17.45640000
O      -15.44397000      17.80367000      17.59039000
H      -14.57743000      17.44577000      17.91528000
