6
Properties=species:S:1:pos:R:3 frame=T 17=T |=T Written=T by=T MDAnalysis=T XYZWriter=T (release=T 2.4.3)=T pbc="F F F"
H       -9.43256000      10.92926000      -6.10770000
O       -9.00145000      11.62363000      -5.58428000
H       -9.02015000      11.31263000      -4.68099000
H       -9.74913000       8.58766000      -6.15082000
O       -9.43989000       9.07396000      -6.92275000
H       -8.48744000       9.18798000      -6.83842000
