6
Properties=species:S:1:pos:R:3 frame=T 39=T |=T Written=T by=T MDAnalysis=T XYZWriter=T (release=T 2.4.3)=T pbc="F F F"
H       -1.36417000      -2.35821000      -0.82808000
O       -1.04378000      -1.69208000      -0.18604000
H       -0.40275000      -2.17107000       0.33561000
H        1.97489000      -3.07881000       0.74524000
O        1.51424000      -2.22511000       0.74073000
H        2.26667000      -1.60724000       0.70223000
