6
Properties=species:S:1:pos:R:3 frame=T 19=T |=T Written=T by=T MDAnalysis=T XYZWriter=T (release=T 2.4.3)=T pbc="F F F"
H       -6.82242000       7.24133000      16.73181000
O       -6.17578000       7.05137000      16.02304000
H       -5.76202000       7.90095000      15.82334000
H       -3.70709000       5.98338000      17.46255000
O       -4.00859000       6.88036000      17.60001000
H       -4.84309000       6.91194000      17.10124000
