6
Properties=species:S:1:pos:R:3 frame=T 46=T |=T Written=T by=T MDAnalysis=T XYZWriter=T (release=T 2.4.3)=T pbc="F F F"
H        4.62048000      12.55883000     -14.22575000
O        5.25233000      11.85432000     -14.24474000
H        4.74866000      11.03095000     -14.14717000
H        4.35279000      14.80381000     -12.62832000
O        3.97608000      13.96050000     -12.92239000
H        3.45119000      13.66055000     -12.14332000
