6
Properties=species:S:1:pos:R:3 frame=T 4=T |=T Written=T by=T MDAnalysis=T XYZWriter=T (release=T 2.4.3)=T pbc="F F F"
H       16.59104000      10.43459000     -10.95048000
O       17.12511000       9.64520000     -10.80630000
H       16.85880000       9.11734000     -11.58527000
H       17.61913000      10.43728000     -14.76867000
O       17.45717000       9.93420000     -13.94995000
H       18.13176000      10.26321000     -13.35107000
