6
Properties=species:S:1:pos:R:3 frame=T 10=T |=T Written=T by=T MDAnalysis=T XYZWriter=T (release=T 2.4.3)=T pbc="F F F"
H        9.53154000      14.47763000     -14.51429000
O       10.47129000      14.24467000     -14.57267000
H       10.79780000      14.48837000     -13.69209000
H       10.81879000      16.57270000     -14.68287000
O       10.93679000      17.48778000     -14.43194000
H       11.13144000      17.42459000     -13.47576000
