6
Properties=species:S:1:pos:R:3 frame=T 2=T |=T Written=T by=T MDAnalysis=T XYZWriter=T (release=T 2.4.3)=T pbc="F F F"
H        2.44128000       4.30348000     -19.20080000
O        1.51275000       4.51103000     -19.00918000
H        1.48492000       4.97162000     -18.14804000
H        1.04500000       2.89089000     -17.95779000
O        1.26254000       2.37079000     -17.18206000
H        0.89594000       2.86920000     -16.44110000
