6
Properties=species:S:1:pos:R:3 frame=T 6=T |=T Written=T by=T MDAnalysis=T XYZWriter=T (release=T 2.4.3)=T pbc="F F F"
H       10.87482000      11.06933000      -2.34008000
O       11.30111000      11.67041000      -2.97518000
H       11.91518000      11.02938000      -3.36822000
H       13.51580000      10.65390000      -2.98651000
O       13.43747000       9.87239000      -3.55371000
H       13.89458000      10.04506000      -4.38830000
