6
Properties=species:S:1:pos:R:3 frame=T 10=T |=T Written=T by=T MDAnalysis=T XYZWriter=T (release=T 2.4.3)=T pbc="F F F"
H        6.08693000      -3.87449000       7.90442000
O        6.58186000      -4.56116000       7.43564000
H        7.50147000      -4.35144000       7.58214000
H        5.11460000      -6.83905000       9.11856000
O        4.41183000      -6.51340000       8.55608000
H        4.79718000      -5.76101000       8.15853000
