6
Properties=species:S:1:pos:R:3 frame=T 1=T |=T Written=T by=T MDAnalysis=T XYZWriter=T (release=T 2.4.3)=T pbc="F F F"
H        7.23101000     -12.00872000      -1.81021000
O        6.53827000     -11.40195000      -2.08413000
H        5.75446000     -11.95045000      -2.13276000
H        4.14728000     -12.39706000      -1.07355000
O        4.11195000     -12.54195000      -2.03297000
H        3.80085000     -11.73522000      -2.44112000
