6
Properties=species:S:1:pos:R:3 frame=T 53=T |=T Written=T by=T MDAnalysis=T XYZWriter=T (release=T 2.4.3)=T pbc="F F F"
H       -3.57939000      17.85114000     -15.48631000
O       -3.59474000      16.95986000     -15.88853000
H       -4.04136000      17.05046000     -16.76427000
H       -5.37708000      19.16524000     -17.32093000
O       -4.98579000      18.73047000     -18.10590000
H       -5.71307000      18.68842000     -18.70640000
