6
Properties=species:S:1:pos:R:3 frame=T 20=T |=T Written=T by=T MDAnalysis=T XYZWriter=T (release=T 2.4.3)=T pbc="F F F"
H       -2.20514000       8.89717000       7.81280000
O       -1.46939000       9.49111000       7.88570000
H       -1.47115000       9.74471000       8.81156000
H       -0.24129000       9.67833000       6.34553000
O        0.05365000      10.10186000       5.53423000
H       -0.28447000       9.51467000       4.84862000
