6
Properties=species:S:1:pos:R:3 frame=T 47=T |=T Written=T by=T MDAnalysis=T XYZWriter=T (release=T 2.4.3)=T pbc="F F F"
H       16.05586000       8.68401000      16.90091000
O       15.91357000       7.94035000      17.45936000
H       16.68273000       7.38577000      17.38917000
H       19.21047000       7.59932000      16.49306000
O       19.08829000       6.80265000      16.98532000
H       18.29119000       6.45672000      16.59573000
