6
Properties=species:S:1:pos:R:3 frame=T 21=T |=T Written=T by=T MDAnalysis=T XYZWriter=T (release=T 2.4.3)=T pbc="F F F"
H       15.17517000      -1.63044000      -0.84419000
O       15.10048000      -1.16368000      -1.68108000
H       15.50267000      -1.76452000      -2.30625000
H       15.53192000      -4.84851000      -1.88203000
O       15.80561000      -3.94658000      -2.15554000
H       16.71595000      -4.06225000      -2.40277000
