6
Properties=species:S:1:pos:R:3 frame=T 25=T |=T Written=T by=T MDAnalysis=T XYZWriter=T (release=T 2.4.3)=T pbc="F F F"
H      -12.37996000      -7.03675000      -6.29750000
O      -12.89235000      -7.30842000      -5.52068000
H      -13.45259000      -6.56793000      -5.26212000
H      -11.98015000      -7.54152000      -4.24614000
O      -11.74766000      -7.52483000      -3.27025000
H      -12.40138000      -8.13688000      -2.88325000
