6
Properties=species:S:1:pos:R:3 frame=T 38=T |=T Written=T by=T MDAnalysis=T XYZWriter=T (release=T 2.4.3)=T pbc="F F F"
H       11.27306000      13.25482000     -14.02468000
O       11.91740000      12.63439000     -14.38793000
H       12.81144000      12.91382000     -14.06947000
H        9.50563000      13.83785000     -14.14015000
O        9.70179000      13.76684000     -13.18018000
H        9.67805000      12.81459000     -12.93907000
