6
Properties=species:S:1:pos:R:3 frame=T 17=T |=T Written=T by=T MDAnalysis=T XYZWriter=T (release=T 2.4.3)=T pbc="F F F"
H       -9.98389000     -16.35248000      -5.32654000
O      -10.74426000     -16.93713000      -5.39531000
H      -10.65293000     -17.52957000      -4.63987000
H      -13.06138000     -17.21254000      -2.58203000
O      -12.45337000     -17.81024000      -2.09741000
H      -11.91532000     -18.20085000      -2.81501000
