6
Properties=species:S:1:pos:R:3 frame=T 17=T |=T Written=T by=T MDAnalysis=T XYZWriter=T (release=T 2.4.3)=T pbc="F F F"
H      -14.74740000       3.74878000      17.28106000
O      -15.02401000       3.13435000      16.56301000
H      -15.81033000       2.70716000      16.97553000
H      -16.72636000       1.80717000      18.48818000
O      -17.30794000       2.32788000      17.92525000
H      -16.99475000       3.22396000      18.06273000
