6
Properties=species:S:1:pos:R:3 frame=T 13=T |=T Written=T by=T MDAnalysis=T XYZWriter=T (release=T 2.4.3)=T pbc="F F F"
H      -18.80021000      -2.87585000     -17.74432000
O      -18.94353000      -3.83050000     -17.79466000
H      -18.06273000      -4.21149000     -17.98359000
H      -16.86852000      -1.20181000     -17.77266000
O      -16.74970000      -1.07314000     -16.83450000
H      -15.77978000      -1.04002000     -16.77847000
