6
Properties=species:S:1:pos:R:3 frame=T 1=T |=T Written=T by=T MDAnalysis=T XYZWriter=T (release=T 2.4.3)=T pbc="F F F"
H        6.85909000     -11.99972000      16.55271000
O        6.79647000     -11.11742000      16.94732000
H        6.73829000     -10.51378000      16.21132000
H        4.41787000     -11.68841000      17.17469000
O        3.97774000     -12.25509000      17.82208000
H        4.49398000     -13.06393000      17.75388000
