6
Properties=species:S:1:pos:R:3 frame=T 7=T |=T Written=T by=T MDAnalysis=T XYZWriter=T (release=T 2.4.3)=T pbc="F F F"
H        2.86039000     -17.02610000      13.27618000
O        2.04874000     -17.55193000      13.40919000
H        1.86199000     -17.36126000      14.32657000
H        0.38929000     -18.34666000      15.29109000
O        0.17916000     -19.21479000      14.85287000
H       -0.80036000     -19.07788000      14.74353000
