6
Properties=species:S:1:pos:R:3 frame=T 13=T |=T Written=T by=T MDAnalysis=T XYZWriter=T (release=T 2.4.3)=T pbc="F F F"
H      -10.04455000     -16.46391000      -1.93376000
O      -10.46820000     -16.70755000      -2.74420000
H      -11.09293000     -15.96580000      -2.93742000
H      -10.33526000     -12.66672000      -1.65702000
O      -10.33322000     -13.62933000      -1.73060000
H      -10.07738000     -13.80363000      -2.63159000
