6
Properties=species:S:1:pos:R:3 frame=T 37=T |=T Written=T by=T MDAnalysis=T XYZWriter=T (release=T 2.4.3)=T pbc="F F F"
H       -9.88923000       6.13448000     -16.24725000
O      -10.10507000       6.29200000     -17.17058000
H       -9.82823000       7.21799000     -17.24446000
H      -11.42598000       6.76225000     -18.40362000
O      -11.72155000       7.48861000     -18.93476000
H      -11.76935000       8.20362000     -18.29708000
