6
Properties=species:S:1:pos:R:3 frame=T 48=T |=T Written=T by=T MDAnalysis=T XYZWriter=T (release=T 2.4.3)=T pbc="F F F"
H       -9.09876000     -12.37705000     -10.38588000
O      -10.03131000     -12.23231000     -10.50615000
H      -10.34471000     -13.14151000     -10.42499000
H      -11.80974000     -11.14677000      -7.83807000
O      -11.27616000     -10.58435000      -8.43347000
H      -11.26726000     -11.05929000      -9.23973000
