6
Properties=species:S:1:pos:R:3 frame=T 21=T |=T Written=T by=T MDAnalysis=T XYZWriter=T (release=T 2.4.3)=T pbc="F F F"
H      -14.53781000       6.86332000      15.65190000
O      -13.96668000       6.34435000      16.24666000
H      -14.35390000       5.46705000      16.19274000
H      -16.39447000       6.46421000      18.49649000
O      -15.96767000       7.09644000      17.91906000
H      -15.26576000       6.59148000      17.47138000
