6
Properties=species:S:1:pos:R:3 frame=T 26=T |=T Written=T by=T MDAnalysis=T XYZWriter=T (release=T 2.4.3)=T pbc="F F F"
H      -15.79254000       1.65267000     -12.78968000
O      -15.13961000       1.26667000     -13.36303000
H      -14.32672000       1.57672000     -12.92484000
H      -16.08353000      -1.38514000     -14.81091000
O      -15.30985000      -1.57640000     -14.28289000
H      -15.06635000      -0.68392000     -13.95278000
