6
Properties=species:S:1:pos:R:3 frame=T 47=T |=T Written=T by=T MDAnalysis=T XYZWriter=T (release=T 2.4.3)=T pbc="F F F"
H       14.93389000     -17.49858000      -0.13409000
O       14.99567000     -16.54836000      -0.26898000
H       15.60172000     -16.45825000      -1.00875000
H       13.30563000     -17.09929000      -1.43019000
O       12.85833000     -17.03615000      -2.32018000
H       13.20466000     -16.20135000      -2.61653000
