6
Properties=species:S:1:pos:R:3 frame=T 34=T |=T Written=T by=T MDAnalysis=T XYZWriter=T (release=T 2.4.3)=T pbc="F F F"
H       12.91508000      14.74043000       1.20129000
O       13.03781000      15.24755000       0.38329000
H       13.89762000      15.65918000       0.53712000
H       11.14595000      15.63255000      -0.25022000
O       10.47507000      15.01949000      -0.57434000
H       10.26573000      15.40865000      -1.42442000
