6
Properties=species:S:1:pos:R:3 frame=T 36=T |=T Written=T by=T MDAnalysis=T XYZWriter=T (release=T 2.4.3)=T pbc="F F F"
H      -13.62220000     -11.17893000      -1.22038000
O      -12.68806000     -11.29308000      -0.97979000
H      -12.37924000     -10.37868000      -1.14201000
H      -12.56775000      -8.16501000      -0.82739000
O      -13.02558000      -8.38884000       0.02033000
H      -12.30989000      -8.78504000       0.53008000
