6
Properties=species:S:1:pos:R:3 frame=T 31=T |=T Written=T by=T MDAnalysis=T XYZWriter=T (release=T 2.4.3)=T pbc="F F F"
H        2.29220000       2.65334000       0.32457000
O        2.89825000       3.28550000       0.75770000
H        3.32353000       3.74885000       0.04129000
H        2.03073000       0.94415000      -0.83927000
O        1.19212000       1.44696000      -0.80554000
H        0.93284000       1.46797000       0.12224000
