6
Properties=species:S:1:pos:R:3 frame=T 15=T |=T Written=T by=T MDAnalysis=T XYZWriter=T (release=T 2.4.3)=T pbc="F F F"
H       14.18465000      -9.09919000      12.89512000
O       14.00431000      -8.62899000      13.70717000
H       14.65898000      -8.96392000      14.33444000
H       14.21558000      -5.76329000      12.71156000
O       13.44450000      -5.84359000      13.25354000
H       13.68532000      -6.52256000      13.88329000
