6
Properties=species:S:1:pos:R:3 frame=T 22=T |=T Written=T by=T MDAnalysis=T XYZWriter=T (release=T 2.4.3)=T pbc="F F F"
H       -6.62087000      -0.18860000      -7.52493000
O       -6.25211000       0.38093000      -8.17970000
H       -5.53773000      -0.17530000      -8.55521000
H       -4.90062000       1.54231000      -7.31916000
O       -3.96441000       1.66576000      -7.10157000
H       -3.82527000       0.94133000      -6.44692000
