6
Properties=species:S:1:pos:R:3 frame=T 3=T |=T Written=T by=T MDAnalysis=T XYZWriter=T (release=T 2.4.3)=T pbc="F F F"
H        1.43436000     -12.72396000      13.99204000
O        1.16375000     -12.87395000      13.06323000
H        0.95947000     -12.00134000      12.70025000
H       -0.40159000     -11.60919000      11.34734000
O       -0.11659000     -10.75131000      11.71157000
H        0.80706000     -10.66727000      11.40756000
