6
Properties=species:S:1:pos:R:3 frame=T 39=T |=T Written=T by=T MDAnalysis=T XYZWriter=T (release=T 2.4.3)=T pbc="F F F"
H      -11.74526000       6.59403000      17.38620000
O      -11.74725000       6.74221000      18.32522000
H      -10.84010000       7.04723000      18.53006000
H       -9.23910000       7.04001000      17.59547000
O       -9.26990000       7.41466000      18.48334000
H       -8.34465000       7.64895000      18.66408000
