6
Properties=species:S:1:pos:R:3 frame=T 44=T |=T Written=T by=T MDAnalysis=T XYZWriter=T (release=T 2.4.3)=T pbc="F F F"
H       -6.30253000      -0.51064000       9.64753000
O       -6.37405000      -0.90570000       8.76012000
H       -6.44673000      -1.87239000       8.91924000
H       -6.99587000      -4.73216000       8.65551000
O       -6.36880000      -3.98469000       8.69548000
H       -6.18174000      -3.88119000       9.62074000
