6
Properties=species:S:1:pos:R:3 frame=T 1=T |=T Written=T by=T MDAnalysis=T XYZWriter=T (release=T 2.4.3)=T pbc="F F F"
H       12.89310000       3.59234000      -6.04233000
O       12.17900000       4.09316000      -6.41903000
H       11.58735000       4.28602000      -5.64017000
H        9.87618000       2.48172000      -4.71033000
O        9.95002000       2.55932000      -5.65669000
H       10.78986000       2.16602000      -5.86010000
