6
Properties=species:S:1:pos:R:3 frame=T 41=T |=T Written=T by=T MDAnalysis=T XYZWriter=T (release=T 2.4.3)=T pbc="F F F"
H      -11.79645000      -6.38569000     -13.42158000
O      -12.18798000      -5.56775000     -13.78032000
H      -13.04561000      -5.52549000     -13.39071000
H      -14.94832000      -5.07188000     -12.64732000
O      -14.62692000      -4.51342000     -13.38879000
H      -13.89401000      -3.99297000     -13.03276000
