6
Properties=species:S:1:pos:R:3 frame=T 46=T |=T Written=T by=T MDAnalysis=T XYZWriter=T (release=T 2.4.3)=T pbc="F F F"
H        7.65720000      -7.68155000      -3.36053000
O        6.81745000      -7.22875000      -3.17359000
H        6.64161000      -6.86410000      -4.03141000
H        9.10022000      -5.69880000      -2.06110000
O        8.39527000      -5.79600000      -1.44259000
H        7.66076000      -6.19374000      -1.93746000
