6
Properties=species:S:1:pos:R:3 frame=T 10=T |=T Written=T by=T MDAnalysis=T XYZWriter=T (release=T 2.4.3)=T pbc="F F F"
H       -1.85442000       2.06056000      15.96115000
O       -2.12209000       2.93935000      16.24444000
H       -2.67810000       2.72710000      16.98989000
H       -4.41576000       2.86960000      17.67889000
O       -3.69538000       2.55137000      18.21973000
H       -3.97223000       1.65974000      18.50902000
