6
Properties=species:S:1:pos:R:3 frame=T 0=T |=T Written=T by=T MDAnalysis=T XYZWriter=T (release=T 2.4.3)=T pbc="F F F"
H       12.59611000     -18.55120000      11.42768000
O       12.10167000     -17.74189000      11.41119000
H       12.73776000     -17.02963000      11.66426000
H       11.84945000     -17.75505000       9.57006000
O       11.94152000     -18.10298000       8.65800000
H       12.78042000     -18.56746000       8.67329000
