6
Properties=species:S:1:pos:R:3 frame=T 1=T |=T Written=T by=T MDAnalysis=T XYZWriter=T (release=T 2.4.3)=T pbc="F F F"
H      -14.27088000      13.16902000     -13.11967000
O      -15.08039000      13.70684000     -13.15351000
H      -15.74757000      13.05585000     -12.90556000
H      -13.04869000      14.91289000     -11.27948000
O      -13.98977000      14.87466000     -11.00720000
H      -14.46209000      14.54594000     -11.79433000
