6
Properties=species:S:1:pos:R:3 frame=T 29=T |=T Written=T by=T MDAnalysis=T XYZWriter=T (release=T 2.4.3)=T pbc="F F F"
H       -5.45481000      -5.22909000       8.08142000
O       -5.29305000      -5.86706000       8.79159000
H       -4.57797000      -5.48575000       9.32353000
H       -2.95852000      -3.73137000       8.88141000
O       -2.79789000      -4.30240000       9.64923000
H       -3.36952000      -4.00075000      10.40314000
