6
Properties=species:S:1:pos:R:3 frame=T 10=T |=T Written=T by=T MDAnalysis=T XYZWriter=T (release=T 2.4.3)=T pbc="F F F"
H       -2.20401000       3.98958000       7.98057000
O       -2.11777000       4.92845000       7.83009000
H       -1.99686000       5.06126000       6.87286000
H       -2.38392000       2.91933000       9.22322000
O       -2.42662000       2.34357000       8.44011000
H       -1.60410000       1.86221000       8.49219000
