6
Properties=species:S:1:pos:R:3 frame=T 7=T |=T Written=T by=T MDAnalysis=T XYZWriter=T (release=T 2.4.3)=T pbc="F F F"
H       17.18859000       2.35940000       1.49840000
O       16.95339000       3.17851000       1.01284000
H       17.47667000       3.11125000       0.19874000
H       18.43654000       0.90637000       1.51501000
O       19.03203000       1.46771000       2.05414000
H       18.77149000       1.28117000       2.98236000
