6
Properties=species:S:1:pos:R:3 frame=T 13=T |=T Written=T by=T MDAnalysis=T XYZWriter=T (release=T 2.4.3)=T pbc="F F F"
H        3.66873000       2.16340000     -14.16875000
O        3.95752000       1.24478000     -14.23674000
H        3.89895000       0.94697000     -13.32502000
H        3.75510000       2.72283000     -10.81618000
O        3.48940000       2.05215000     -11.48765000
H        2.87207000       1.48035000     -11.03635000
