6
Properties=species:S:1:pos:R:3 frame=T 13=T |=T Written=T by=T MDAnalysis=T XYZWriter=T (release=T 2.4.3)=T pbc="F F F"
H        9.56063000       5.87717000       4.09375000
O        9.89784000       5.91610000       5.00341000
H       10.80387000       5.59906000       5.04296000
H        9.13289000       3.98958000       2.60642000
O        9.54400000       4.80313000       2.31386000
H       10.49362000       4.54842000       2.23196000
