6
Properties=species:S:1:pos:R:3 frame=T 40=T |=T Written=T by=T MDAnalysis=T XYZWriter=T (release=T 2.4.3)=T pbc="F F F"
H       -0.87439000      -2.51071000      -7.89819000
O       -1.58995000      -3.03089000      -7.54458000
H       -2.30599000      -2.89712000      -8.18377000
H       -0.59804000      -5.56954000      -7.92714000
O       -1.56879000      -5.63451000      -7.78248000
H       -1.79227000      -4.79483000      -7.39038000
