6
Properties=species:S:1:pos:R:3 frame=T 25=T |=T Written=T by=T MDAnalysis=T XYZWriter=T (release=T 2.4.3)=T pbc="F F F"
H       17.91959000       1.84586000      -4.33716000
O       18.58924000       1.87527000      -5.04478000
H       19.42882000       1.66091000      -4.60581000
H       17.23956000      -0.03790000      -6.53186000
O       17.86511000       0.09655000      -7.24106000
H       18.36754000       0.84354000      -6.94320000
