6
Properties=species:S:1:pos:R:3 frame=T 3=T |=T Written=T by=T MDAnalysis=T XYZWriter=T (release=T 2.4.3)=T pbc="F F F"
H      -16.19477000      -4.53687000      -1.48170000
O      -16.20853000      -4.49269000      -0.49806000
H      -15.58766000      -5.18221000      -0.26205000
H      -15.77042000      -2.85320000      -0.90364000
O      -15.41885000      -1.94872000      -1.03208000
H      -14.51042000      -2.16380000      -1.26280000
