6
Properties=species:S:1:pos:R:3 frame=T 4=T |=T Written=T by=T MDAnalysis=T XYZWriter=T (release=T 2.4.3)=T pbc="F F F"
H       13.80811000       8.95929000       3.80566000
O       13.55330000       9.85525000       4.10721000
H       12.81854000       9.68203000       4.71748000
H       14.62528000      11.13333000       3.38465000
O       15.42204000      11.29908000       2.85455000
H       15.51742000      12.25371000       2.65804000
