6
Properties=species:S:1:pos:R:3 frame=T 7=T |=T Written=T by=T MDAnalysis=T XYZWriter=T (release=T 2.4.3)=T pbc="F F F"
H        0.62762000      -5.67453000     -18.98460000
O        1.60223000      -5.69530000     -19.01233000
H        1.86690000      -5.90961000     -18.11154000
H        1.77164000      -5.50461000     -16.41269000
O        2.61166000      -5.93917000     -16.58286000
H        3.23550000      -5.29811000     -16.27070000
