6
Properties=species:S:1:pos:R:3 frame=T 32=T |=T Written=T by=T MDAnalysis=T XYZWriter=T (release=T 2.4.3)=T pbc="F F F"
H       18.78084000      16.63572000     -11.21179000
O       17.84085000      16.74603000     -10.96264000
H       17.31592000      16.46536000     -11.71736000
H       18.19114000      18.03702000     -12.57320000
O       17.86363000      18.93055000     -12.55848000
H       17.54630000      19.00114000     -11.66715000
