6
Properties=species:S:1:pos:R:3 frame=T 31=T |=T Written=T by=T MDAnalysis=T XYZWriter=T (release=T 2.4.3)=T pbc="F F F"
H        3.10749000      -9.14861000     -17.52610000
O        3.17628000      -9.02974000     -16.55152000
H        3.51147000      -9.88708000     -16.19652000
H        1.47295000      -9.83925000     -16.42454000
O        1.02371000     -10.56196000     -16.82403000
H        0.15881000     -10.20313000     -17.12332000
