6
Properties=species:S:1:pos:R:3 frame=T 8=T |=T Written=T by=T MDAnalysis=T XYZWriter=T (release=T 2.4.3)=T pbc="F F F"
H       14.33031000       9.00089000      -7.30828000
O       13.67976000       9.65972000      -7.58068000
H       13.74524000       9.74320000      -8.53246000
H       14.26117000      11.09025000      -7.20034000
O       14.21538000      12.06382000      -7.03549000
H       15.12253000      12.31262000      -7.17187000
