6
Properties=species:S:1:pos:R:3 frame=T 2=T |=T Written=T by=T MDAnalysis=T XYZWriter=T (release=T 2.4.3)=T pbc="F F F"
H       -3.61687000     -11.38309000       8.60647000
O       -3.64433000     -12.22348000       8.12782000
H       -4.58826000     -12.31783000       7.92251000
H       -5.56207000      -9.97741000       6.95979000
O       -5.80028000     -10.89397000       6.71863000
H       -6.76214000     -10.93231000       6.82923000
