6
Properties=species:S:1:pos:R:3 frame=T 27=T |=T Written=T by=T MDAnalysis=T XYZWriter=T (release=T 2.4.3)=T pbc="F F F"
H       10.02392000       0.32354000      11.71973000
O       10.24464000       0.70659000      12.55356000
H       10.77510000       1.48125000      12.31943000
H       11.66814000       3.56738000      11.66210000
O       11.54177000       2.61524000      11.55450000
H       11.36394000       2.47671000      10.63365000
