6
Properties=species:S:1:pos:R:3 frame=T 43=T |=T Written=T by=T MDAnalysis=T XYZWriter=T (release=T 2.4.3)=T pbc="F F F"
H       18.51935000      19.55224000      -8.51226000
O       18.00478000      18.75770000      -8.25799000
H       18.55010000      18.24521000      -7.62195000
H       16.14018000      18.03131000     -10.76391000
O       16.83032000      17.36983000     -10.62834000
H       17.45491000      17.90029000     -10.12900000
