6
Properties=species:S:1:pos:R:3 frame=T 19=T |=T Written=T by=T MDAnalysis=T XYZWriter=T (release=T 2.4.3)=T pbc="F F F"
H       12.71170000      16.28811000     -18.49989000
O       11.88755000      15.78375000     -18.42155000
H       11.29365000      16.41703000     -17.97782000
H       12.60472000      14.24778000     -17.35157000
O       12.56658000      13.83764000     -16.48248000
H       12.26805000      14.55051000     -15.88592000
