6
Properties=species:S:1:pos:R:3 frame=T 40=T |=T Written=T by=T MDAnalysis=T XYZWriter=T (release=T 2.4.3)=T pbc="F F F"
H       17.43007000      -2.91036000      -6.08536000
O       17.02256000      -2.24350000      -5.51978000
H       17.77539000      -1.74169000      -5.17938000
H       18.95816000       0.08281000      -7.21690000
O       18.45316000       0.50423000      -6.51757000
H       18.64339000      -0.01389000      -5.69201000
