6
Properties=species:S:1:pos:R:3 frame=T 48=T |=T Written=T by=T MDAnalysis=T XYZWriter=T (release=T 2.4.3)=T pbc="F F F"
H       13.99897000      -1.77540000     -10.80933000
O       14.23624000      -1.58108000      -9.89694000
H       15.20614000      -1.48770000      -9.97295000
H       11.75755000      -1.59489000     -12.42118000
O       12.37897000      -2.22291000     -12.02825000
H       12.98653000      -2.35602000     -12.76632000
