6
Properties=species:S:1:pos:R:3 frame=T 18=T |=T Written=T by=T MDAnalysis=T XYZWriter=T (release=T 2.4.3)=T pbc="F F F"
H        5.84294000     -14.72529000      -8.40015000
O        6.20279000     -15.35781000      -9.05928000
H        5.56084000     -16.05639000      -9.06088000
H        2.87221000     -14.42769000      -8.41106000
O        3.68696000     -14.53574000      -8.91505000
H        4.16767000     -13.68775000      -8.81971000
