6
Properties=species:S:1:pos:R:3 frame=T 2=T |=T Written=T by=T MDAnalysis=T XYZWriter=T (release=T 2.4.3)=T pbc="F F F"
H       -5.17307000      18.11555000      -2.21518000
O       -5.82407000      17.82210000      -1.60004000
H       -5.52103000      18.31657000      -0.82781000
H       -3.23571000      18.57529000      -3.67055000
O       -3.92882000      17.91909000      -3.70965000
H       -3.74073000      17.43090000      -4.49891000
