6
Properties=species:S:1:pos:R:3 frame=T 53=T |=T Written=T by=T MDAnalysis=T XYZWriter=T (release=T 2.4.3)=T pbc="F F F"
H      -15.21212000     -15.78076000      11.97316000
O      -15.07504000     -14.84143000      11.77205000
H      -14.38681000     -14.52777000      12.39430000
H      -17.94911000     -13.91138000      11.22705000
O      -17.45894000     -13.10032000      11.37479000
H      -16.66393000     -13.44609000      11.80375000
