6
Properties=species:S:1:pos:R:3 frame=T 21=T |=T Written=T by=T MDAnalysis=T XYZWriter=T (release=T 2.4.3)=T pbc="F F F"
H      -15.04091000      -4.09329000       6.94915000
O      -14.17877000      -3.97952000       6.58761000
H      -14.02055000      -3.03114000       6.75830000
H      -16.52490000      -5.01812000       8.10558000
O      -16.78275000      -4.91349000       7.19300000
H      -16.89751000      -3.95285000       7.18756000
