6
Properties=species:S:1:pos:R:3 frame=T 13=T |=T Written=T by=T MDAnalysis=T XYZWriter=T (release=T 2.4.3)=T pbc="F F F"
H       16.26495000       0.25475000       9.70131000
O       17.20157000       0.34161000       9.49393000
H       17.56208000      -0.58533000       9.44015000
H       14.56998000       2.04452000      10.62519000
O       14.84350000       1.38517000       9.97248000
H       13.97891000       1.10008000       9.60749000
