6
Properties=species:S:1:pos:R:3 frame=T 34=T |=T Written=T by=T MDAnalysis=T XYZWriter=T (release=T 2.4.3)=T pbc="F F F"
H        8.37251000      16.69569000      -6.50807000
O        7.57918000      16.28135000      -6.19513000
H        7.82722000      15.35715000      -6.03143000
H        9.47407000      16.36133000      -8.19435000
O        9.60348000      17.10447000      -7.57220000
H       10.52077000      17.03691000      -7.30233000
