6
Properties=species:S:1:pos:R:3 frame=T 38=T |=T Written=T by=T MDAnalysis=T XYZWriter=T (release=T 2.4.3)=T pbc="F F F"
H        6.01691000     -13.06002000      18.14011000
O        5.35401000     -12.61041000      17.62206000
H        4.90385000     -12.01318000      18.23694000
H        7.76149000     -14.81281000      17.89676000
O        6.79832000     -14.85783000      17.95492000
H        6.71695000     -15.58400000      18.61521000
