6
Properties=species:S:1:pos:R:3 frame=T 50=T |=T Written=T by=T MDAnalysis=T XYZWriter=T (release=T 2.4.3)=T pbc="F F F"
H       -4.05423000       6.69924000      -7.35263000
O       -4.25224000       5.79378000      -7.61924000
H       -5.15878000       5.86501000      -8.02903000
H       -5.76122000       4.38897000      -5.55306000
O       -4.81725000       4.26535000      -5.56376000
H       -4.51154000       4.73959000      -6.36875000
