6
Properties=species:S:1:pos:R:3 frame=T 21=T |=T Written=T by=T MDAnalysis=T XYZWriter=T (release=T 2.4.3)=T pbc="F F F"
H      -15.22516000      -8.82362000     -16.52337000
O      -14.65374000      -8.89751000     -17.29399000
H      -15.02868000      -8.20393000     -17.86657000
H      -16.37883000      -7.63201000     -15.63713000
O      -16.84900000      -7.59138000     -16.46435000
H      -17.47166000      -6.87859000     -16.34356000
