6
Properties=species:S:1:pos:R:3 frame=T 11=T |=T Written=T by=T MDAnalysis=T XYZWriter=T (release=T 2.4.3)=T pbc="F F F"
H       11.76358000      -5.42092000      15.74839000
O       10.94853000      -5.23850000      15.27296000
H       11.14689000      -5.53303000      14.39083000
H       13.52385000      -4.93093000      16.03405000
O       13.56822000      -5.56030000      16.75897000
H       13.80267000      -6.35952000      16.31160000
