6
Properties=species:S:1:pos:R:3 frame=T 1=T |=T Written=T by=T MDAnalysis=T XYZWriter=T (release=T 2.4.3)=T pbc="F F F"
H       -4.51080000      -9.96474000     -16.82023000
O       -5.36425000      -9.86361000     -16.42122000
H       -6.00016000      -9.91524000     -17.13811000
H       -4.37297000      -7.72795000     -17.40581000
O       -3.98306000      -6.95159000     -16.99617000
H       -3.27987000      -7.37363000     -16.45644000
