6
Properties=species:S:1:pos:R:3 frame=T 28=T |=T Written=T by=T MDAnalysis=T XYZWriter=T (release=T 2.4.3)=T pbc="F F F"
H       -6.65537000     -15.28806000     -11.35262000
O       -6.85037000     -15.45697000     -10.42716000
H       -6.86154000     -14.57758000     -10.09453000
H       -7.25253000     -14.21282000     -13.01976000
O       -6.30624000     -14.37879000     -12.82403000
H       -5.86747000     -13.51552000     -12.91028000
