6
Properties=species:S:1:pos:R:3 frame=T 49=T |=T Written=T by=T MDAnalysis=T XYZWriter=T (release=T 2.4.3)=T pbc="F F F"
H       -3.57514000      10.79523000      15.70239000
O       -3.64658000       9.86660000      15.40441000
H       -3.18423000       9.38797000      16.09793000
H       -6.17165000      10.73171000      15.40593000
O       -6.47783000       9.90048000      15.80842000
H       -5.69009000       9.36225000      15.74921000
