6
Properties=species:S:1:pos:R:3 frame=T 40=T |=T Written=T by=T MDAnalysis=T XYZWriter=T (release=T 2.4.3)=T pbc="F F F"
H        2.53089000      13.36510000      14.69292000
O        1.90743000      14.01475000      14.29495000
H        2.22877000      14.84582000      14.66665000
H        4.57077000      12.55307000      16.02852000
O        4.09171000      12.21738000      15.24168000
H        4.06442000      11.28654000      15.45066000
