6
Properties=species:S:1:pos:R:3 frame=T 5=T |=T Written=T by=T MDAnalysis=T XYZWriter=T (release=T 2.4.3)=T pbc="F F F"
H        0.34947000       3.15207000      15.08229000
O       -0.26751000       3.33681000      15.76770000
H        0.25612000       3.26982000      16.58142000
H        0.75898000       4.04733000      17.91912000
O        1.11425000       3.20775000      18.23899000
H        0.44951000       2.98483000      18.90467000
