6
Properties=species:S:1:pos:R:3 frame=T 31=T |=T Written=T by=T MDAnalysis=T XYZWriter=T (release=T 2.4.3)=T pbc="F F F"
H        3.26242000      10.22629000      15.47963000
O        3.07871000      11.15543000      15.72860000
H        3.74531000      11.71618000      15.31040000
H        4.73713000      13.90387000      14.87359000
O        4.75515000      12.99154000      14.46815000
H        5.29234000      13.18090000      13.70173000
