6
Properties=species:S:1:pos:R:3 frame=T 28=T |=T Written=T by=T MDAnalysis=T XYZWriter=T (release=T 2.4.3)=T pbc="F F F"
H       16.53668000     -16.95748000      -7.23038000
O       17.19421000     -16.29831000      -7.48808000
H       18.05184000     -16.74931000      -7.29430000
H       15.52713000     -18.20128000      -5.82644000
O       15.57835000     -18.48244000      -6.75542000
H       16.28560000     -19.12301000      -6.74973000
