6
Properties=species:S:1:pos:R:3 frame=T 17=T |=T Written=T by=T MDAnalysis=T XYZWriter=T (release=T 2.4.3)=T pbc="F F F"
H       -3.55026000     -12.69759000     -17.42584000
O       -3.47363000     -11.88768000     -17.96650000
H       -2.89684000     -12.13043000     -18.67326000
H       -3.07512000     -15.35137000     -18.12486000
O       -2.99805000     -14.66647000     -17.42249000
H       -2.10143000     -14.34724000     -17.55387000
