6
Properties=species:S:1:pos:R:3 frame=T 12=T |=T Written=T by=T MDAnalysis=T XYZWriter=T (release=T 2.4.3)=T pbc="F F F"
H       -8.58209000       0.64180000       7.95366000
O       -8.17186000       0.57923000       8.84010000
H       -8.24811000      -0.37225000       9.08537000
H       -9.30761000      -1.86757000       8.61609000
O       -8.45963000      -2.10695000       9.00749000
H       -8.70334000      -2.53641000       9.83167000
