6
Properties=species:S:1:pos:R:3 frame=T 46=T |=T Written=T by=T MDAnalysis=T XYZWriter=T (release=T 2.4.3)=T pbc="F F F"
H       -7.43154000     -19.30704000       2.51288000
O       -7.48134000     -18.33606000       2.64024000
H       -7.02077000     -18.03145000       1.82444000
H       -6.46937000     -18.17352000      -0.03322000
O       -7.11158000     -17.42123000      -0.05529000
H       -7.90181000     -17.87829000      -0.44256000
