6
Properties=species:S:1:pos:R:3 frame=T 16=T |=T Written=T by=T MDAnalysis=T XYZWriter=T (release=T 2.4.3)=T pbc="F F F"
H       -3.52539000      17.54508000     -18.94839000
O       -4.28771000      17.25099000     -18.39136000
H       -4.96468000      17.08208000     -19.03807000
H       -3.42624000      15.95566000     -16.98444000
O       -2.76820000      15.22888000     -17.04251000
H       -2.47233000      15.27820000     -17.94636000
