6
Properties=species:S:1:pos:R:3 frame=T 11=T |=T Written=T by=T MDAnalysis=T XYZWriter=T (release=T 2.4.3)=T pbc="F F F"
H       -9.35282000      -4.86664000      17.26457000
O       -9.29027000      -3.95879000      16.94214000
H       -9.55138000      -3.46240000      17.75525000
H      -11.41438000      -2.74468000      18.77374000
O      -11.85212000      -2.61008000      17.91156000
H      -12.33581000      -3.44627000      17.80691000
