6
Properties=species:S:1:pos:R:3 frame=T 49=T |=T Written=T by=T MDAnalysis=T XYZWriter=T (release=T 2.4.3)=T pbc="F F F"
H       -4.67263000       4.29998000     -13.32399000
O       -5.17828000       4.17336000     -12.50319000
H       -5.82679000       3.51383000     -12.74680000
H       -7.52856000       1.91066000     -11.96176000
O       -7.09331000       2.56853000     -12.51834000
H       -7.50665000       3.40948000     -12.31341000
