6
Properties=species:S:1:pos:R:3 frame=T 43=T |=T Written=T by=T MDAnalysis=T XYZWriter=T (release=T 2.4.3)=T pbc="F F F"
H       -9.85785000       0.69408000       3.62907000
O       -9.77129000       1.37330000       2.94316000
H      -10.65301000       1.39300000       2.52128000
H       -9.92293000       4.24871000       3.31968000
O      -10.46092000       3.74101000       3.92865000
H      -10.42720000       2.83357000       3.60469000
