6
Properties=species:S:1:pos:R:3 frame=T 45=T |=T Written=T by=T MDAnalysis=T XYZWriter=T (release=T 2.4.3)=T pbc="F F F"
H       18.58040000     -16.27790000       0.06011000
O       18.43439000     -15.81381000       0.92286000
H       19.29260000     -15.38545000       1.14733000
H       17.10479000     -13.48845000       1.86017000
O       17.62698000     -13.34143000       1.05174000
H       17.74352000     -14.24972000       0.71130000
