6
Properties=species:S:1:pos:R:3 frame=T 29=T |=T Written=T by=T MDAnalysis=T XYZWriter=T (release=T 2.4.3)=T pbc="F F F"
H       -5.81046000       4.12626000     -10.33854000
O       -5.88894000       4.53601000      -9.48775000
H       -5.11361000       4.20152000      -9.03015000
H       -3.62151000       2.74622000     -11.47750000
O       -3.94349000       2.52701000     -10.60337000
H       -3.28605000       2.95441000     -10.04129000
