6
Properties=species:S:1:pos:R:3 frame=T 23=T |=T Written=T by=T MDAnalysis=T XYZWriter=T (release=T 2.4.3)=T pbc="F F F"
H      -14.72463000     -15.33981000     -10.00746000
O      -13.94212000     -14.76132000     -10.00014000
H      -13.27882000     -15.45511000     -10.09592000
H      -12.37924000     -12.45246000     -10.28509000
O      -13.18609000     -11.97781000     -10.04829000
H      -13.80907000     -12.65721000      -9.79520000
