6
Properties=species:S:1:pos:R:3 frame=T 41=T |=T Written=T by=T MDAnalysis=T XYZWriter=T (release=T 2.4.3)=T pbc="F F F"
H        5.17127000     -12.30603000      -6.65622000
O        4.54355000     -12.84967000      -7.14186000
H        3.78334000     -12.25080000      -7.29458000
H        3.79509000      -9.78979000      -6.34003000
O        4.60717000     -10.30773000      -6.33271000
H        5.17156000      -9.80444000      -5.71735000
