6
Properties=species:S:1:pos:R:3 frame=T 10=T |=T Written=T by=T MDAnalysis=T XYZWriter=T (release=T 2.4.3)=T pbc="F F F"
H      -15.86713000      -0.21419000       1.39769000
O      -16.58557000      -0.41878000       2.01918000
H      -17.01010000      -1.15902000       1.56988000
H      -13.39574000       1.11955000       1.57887000
O      -13.64974000       0.27891000       1.19582000
H      -12.86213000       0.11414000       0.68152000
