6
Properties=species:S:1:pos:R:3 frame=T 27=T |=T Written=T by=T MDAnalysis=T XYZWriter=T (release=T 2.4.3)=T pbc="F F F"
H      -15.60483000      18.45540000       1.30632000
O      -14.99552000      18.27675000       0.56205000
H      -15.46161000      17.59948000       0.01527000
H      -18.28378000      16.05816000       0.75823000
O      -18.04796000      15.97926000      -0.19282000
H      -17.76881000      16.87221000      -0.47558000
