6
Properties=species:S:1:pos:R:3 frame=T 33=T |=T Written=T by=T MDAnalysis=T XYZWriter=T (release=T 2.4.3)=T pbc="F F F"
H        5.60711000      -1.45401000     -16.28021000
O        6.26408000      -2.06873000     -15.94394000
H        6.14861000      -2.87144000     -16.48844000
H        5.18129000      -4.32615000     -17.35905000
O        4.40610000      -4.51838000     -16.80055000
H        4.80837000      -4.76805000     -15.96141000
