6
Properties=species:S:1:pos:R:3 frame=T 9=T |=T Written=T by=T MDAnalysis=T XYZWriter=T (release=T 2.4.3)=T pbc="F F F"
H      -18.40965000     -17.31531000      -5.97506000
O      -17.61799000     -16.77767000      -5.90633000
H      -17.90891000     -15.94154000      -6.29107000
H      -17.82771000     -15.46853000      -4.59734000
O      -17.76778000     -14.81280000      -3.92331000
H      -17.31852000     -14.09953000      -4.36207000
