6
Properties=species:S:1:pos:R:3 frame=T 29=T |=T Written=T by=T MDAnalysis=T XYZWriter=T (release=T 2.4.3)=T pbc="F F F"
H       16.45286000     -10.24654000      13.48519000
O       16.97829000      -9.77548000      14.14398000
H       16.62300000      -8.88520000      14.17166000
H       15.84240000     -10.43701000      15.41701000
O       15.07642000     -10.58520000      16.05548000
H       15.12896000      -9.77548000      16.59540000
