6
Properties=species:S:1:pos:R:3 frame=T 6=T |=T Written=T by=T MDAnalysis=T XYZWriter=T (release=T 2.4.3)=T pbc="F F F"
H       17.72006000      16.24835000      -5.79572000
O       18.05856000      17.12536000      -5.67607000
H       18.58200000      17.05240000      -4.85179000
H       17.18099000      16.99915000      -9.09002000
O       16.65688000      16.97455000      -8.27509000
H       17.33826000      17.09329000      -7.57352000
