6
Properties=species:S:1:pos:R:3 frame=T 44=T |=T Written=T by=T MDAnalysis=T XYZWriter=T (release=T 2.4.3)=T pbc="F F F"
H       16.82429000     -18.62088000       6.20370000
O       17.13171000     -17.82149000       5.80832000
H       16.63591000     -17.76263000       5.00678000
H       15.57883000     -16.38625000       3.58890000
O       16.17196000     -16.99139000       3.13213000
H       16.59974000     -16.46522000       2.45921000
