6
Properties=species:S:1:pos:R:3 frame=T 49=T |=T Written=T by=T MDAnalysis=T XYZWriter=T (release=T 2.4.3)=T pbc="F F F"
H       12.96564000       0.06445000     -11.67377000
O       13.15841000       0.84953000     -11.19589000
H       12.64725000       0.74626000     -10.39233000
H       14.34440000       1.26486000     -12.80786000
O       14.95472000       1.51413000     -13.50487000
H       15.18020000       2.41022000     -13.27436000
