6
Properties=species:S:1:pos:R:3 frame=T 2=T |=T Written=T by=T MDAnalysis=T XYZWriter=T (release=T 2.4.3)=T pbc="F F F"
H       17.51695000      -4.90581000       7.80636000
O       18.26822000      -4.40724000       7.46032000
H       18.28692000      -4.60708000       6.51078000
H       16.24985000      -7.01774000       7.49445000
O       15.82660000      -6.17865000       7.34158000
H       15.64967000      -6.26374000       6.37708000
