6
Properties=species:S:1:pos:R:3 frame=T 39=T |=T Written=T by=T MDAnalysis=T XYZWriter=T (release=T 2.4.3)=T pbc="F F F"
H        3.89830000     -11.64032000       2.73307000
O        4.61023000     -11.63214000       3.36428000
H        5.35548000     -11.21995000       2.92128000
H        4.90742000     -10.47030000       4.81589000
O        5.40059000      -9.71383000       5.14295000
H        5.33611000      -9.06234000       4.42788000
