6
Properties=species:S:1:pos:R:3 frame=T 40=T |=T Written=T by=T MDAnalysis=T XYZWriter=T (release=T 2.4.3)=T pbc="F F F"
H       16.89326000      10.44902000      -2.11289000
O       16.70950000      11.09512000      -2.79531000
H       16.00757000      11.59550000      -2.42262000
H       13.32550000      12.83560000      -2.15449000
O       13.80326000      12.01016000      -2.31307000
H       13.95197000      11.98051000      -3.26637000
