6
Properties=species:S:1:pos:R:3 frame=T 18=T |=T Written=T by=T MDAnalysis=T XYZWriter=T (release=T 2.4.3)=T pbc="F F F"
H        4.79937000      11.67689000       5.02714000
O        4.69863000      12.63020000       4.96877000
H        4.72683000      12.89454000       5.90933000
H        4.78216000       9.79782000       6.96647000
O        4.52719000      10.72018000       7.01311000
H        3.56401000      10.64813000       7.05896000
