6
Properties=species:S:1:pos:R:3 frame=T 48=T |=T Written=T by=T MDAnalysis=T XYZWriter=T (release=T 2.4.3)=T pbc="F F F"
H        7.14892000      -2.08574000      -8.18784000
O        7.22126000      -1.31311000      -7.59134000
H        7.75008000      -1.66390000      -6.85474000
H        8.34227000      -4.10236000      -5.85465000
O        8.32226000      -3.15444000      -5.85864000
H        9.05291000      -2.90503000      -6.40638000
