6
Properties=species:S:1:pos:R:3 frame=T 40=T |=T Written=T by=T MDAnalysis=T XYZWriter=T (release=T 2.4.3)=T pbc="F F F"
H       -6.34128000       5.94988000      -1.37820000
O       -6.09651000       6.84421000      -1.11445000
H       -5.49505000       6.62937000      -0.37341000
H       -5.43583000       4.88943000       1.30200000
O       -4.74550000       5.38669000       0.82806000
H       -4.19722000       4.67522000       0.46881000
