6
Properties=species:S:1:pos:R:3 frame=T 46=T |=T Written=T by=T MDAnalysis=T XYZWriter=T (release=T 2.4.3)=T pbc="F F F"
H      -12.93390000      15.49650000      13.96966000
O      -12.82893000      14.66148000      14.46456000
H      -13.39881000      14.82539000      15.24793000
H      -14.73885000      17.17044000      16.18852000
O      -13.97036000      16.93376000      15.59144000
H      -13.24663000      16.94021000      16.25062000
