6
Properties=species:S:1:pos:R:3 frame=T 38=T |=T Written=T by=T MDAnalysis=T XYZWriter=T (release=T 2.4.3)=T pbc="F F F"
H       -0.57330000     -10.62022000       6.83775000
O       -0.00490000     -11.33892000       6.56755000
H        0.49249000     -11.03842000       5.81992000
H        2.06169000     -12.58234000       4.70154000
O        1.77847000     -11.69034000       4.50816000
H        2.58126000     -11.20802000       4.25994000
