6
Properties=species:S:1:pos:R:3 frame=T 31=T |=T Written=T by=T MDAnalysis=T XYZWriter=T (release=T 2.4.3)=T pbc="F F F"
H       17.67240000       6.96644000      14.44457000
O       17.37802000       6.22087000      13.92457000
H       16.45035000       6.39281000      13.71815000
H       16.93413000       8.98926000      13.97012000
O       17.39410000       8.78517000      14.81202000
H       18.21830000       9.31614000      14.76065000
