6
Properties=species:S:1:pos:R:3 frame=T 16=T |=T Written=T by=T MDAnalysis=T XYZWriter=T (release=T 2.4.3)=T pbc="F F F"
H        5.87062000      -6.01684000      14.25073000
O        5.58811000      -6.69324000      14.90399000
H        5.91083000      -6.29627000      15.71435000
H        6.20455000      -4.23324000      16.89505000
O        6.08861000      -5.01393000      17.44765000
H        6.70599000      -4.84058000      18.16128000
