6
Properties=species:S:1:pos:R:3 frame=T 28=T |=T Written=T by=T MDAnalysis=T XYZWriter=T (release=T 2.4.3)=T pbc="F F F"
H      -15.97582000     -12.71813000      13.50525000
O      -15.61247000     -12.44332000      14.34577000
H      -15.90608000     -13.16104000      14.93728000
H      -13.15661000     -10.30119000      14.15667000
O      -13.58574000     -10.68575000      13.42017000
H      -14.44801000     -10.92986000      13.80748000
