6
Properties=species:S:1:pos:R:3 frame=T 31=T |=T Written=T by=T MDAnalysis=T XYZWriter=T (release=T 2.4.3)=T pbc="F F F"
H       -4.23841000     -14.20836000      16.08779000
O       -4.31309000     -13.92084000      15.16461000
H       -4.19965000     -14.70805000      14.59419000
H       -5.31320000     -13.61506000      17.25702000
O       -4.56737000     -13.85861000      17.80519000
H       -4.69341000     -13.26412000      18.54177000
