6
Properties=species:S:1:pos:R:3 frame=T 1=T |=T Written=T by=T MDAnalysis=T XYZWriter=T (release=T 2.4.3)=T pbc="F F F"
H        0.42749000       1.28919000      15.90131000
O        1.16774000       0.84046000      16.22034000
H        1.73269000       1.48598000      16.66483000
H       -0.48447000      -0.04562000      15.54410000
O       -1.27896000      -0.57860000      15.46518000
H       -1.14444000      -1.08103000      14.62753000
