6
Properties=species:S:1:pos:R:3 frame=T 3=T |=T Written=T by=T MDAnalysis=T XYZWriter=T (release=T 2.4.3)=T pbc="F F F"
H        4.93781000      14.49545000     -11.93767000
O        4.29420000      14.28642000     -11.27878000
H        3.77878000      13.59387000     -11.72790000
H        6.58517000      13.11204000     -12.80846000
O        6.49941000      14.06686000     -13.00049000
H        6.09429000      14.13574000     -13.86181000
