6
Properties=species:S:1:pos:R:3 frame=T 13=T |=T Written=T by=T MDAnalysis=T XYZWriter=T (release=T 2.4.3)=T pbc="F F F"
H       -2.53462000       5.71214000      18.98022000
O       -1.69751000       5.42085000      18.48133000
H       -1.14711000       5.01756000      19.15269000
H       -0.97360000       8.16031000      18.33332000
O       -0.51447000       7.70021000      17.63676000
H       -0.97725000       6.82876000      17.64210000
