6
Properties=species:S:1:pos:R:3 frame=T 0=T |=T Written=T by=T MDAnalysis=T XYZWriter=T (release=T 2.4.3)=T pbc="F F F"
H       10.31755000      16.97076000       3.89808000
O       10.65479000      17.62640000       3.28040000
H       11.45448000      17.24646000       2.93385000
H        9.48706000      16.53479000       1.61789000
O        9.27371000      15.94869000       0.89882000
H       10.12279000      15.54532000       0.65824000
