6
Properties=species:S:1:pos:R:3 frame=T 6=T |=T Written=T by=T MDAnalysis=T XYZWriter=T (release=T 2.4.3)=T pbc="F F F"
H      -14.67774000       9.39888000       8.03859000
O      -13.96010000       9.01824000       7.51910000
H      -14.12092000       9.41608000       6.61595000
H      -16.94685000       9.10677000       8.22662000
O      -16.82146000       8.17273000       8.00968000
H      -17.04831000       7.71572000       8.84616000
