6
Properties=species:S:1:pos:R:3 frame=T 26=T |=T Written=T by=T MDAnalysis=T XYZWriter=T (release=T 2.4.3)=T pbc="F F F"
H       -2.32928000       0.87801000      -6.89953000
O       -2.48938000       0.23683000      -7.64355000
H       -2.33722000       0.77765000      -8.43965000
H       -0.56517000      -0.87977000      -9.57089000
O       -1.51619000      -0.97445000      -9.74388000
H       -1.84368000      -0.90355000      -8.84352000
