6
Properties=species:S:1:pos:R:3 frame=T 38=T |=T Written=T by=T MDAnalysis=T XYZWriter=T (release=T 2.4.3)=T pbc="F F F"
H        1.83557000     -14.78101000      11.40934000
O        1.37533000     -14.88510000      12.26530000
H        0.70160000     -14.17877000      12.21293000
H       -0.26222000     -12.37033000      11.10587000
O       -0.32220000     -12.48603000      12.05792000
H        0.53297000     -12.16014000      12.33350000
