6
Properties=species:S:1:pos:R:3 frame=T 27=T |=T Written=T by=T MDAnalysis=T XYZWriter=T (release=T 2.4.3)=T pbc="F F F"
H       13.44420000      12.85155000      12.40882000
O       13.71044000      12.89620000      13.35703000
H       14.24602000      13.66048000      13.39076000
H       15.12601000      14.23468000      15.74198000
O       15.34688000      14.35446000      14.82150000
H       15.71604000      15.26051000      14.72797000
