6
Properties=species:S:1:pos:R:3 frame=T 5=T |=T Written=T by=T MDAnalysis=T XYZWriter=T (release=T 2.4.3)=T pbc="F F F"
H       -5.05681000     -18.24640000      -6.03990000
O       -5.52514000     -18.08994000      -6.85024000
H       -6.41615000     -17.94549000      -6.47851000
H       -3.21125000     -18.44596000      -9.23475000
O       -3.05236000     -18.51749000      -8.28443000
H       -3.90466000     -18.24591000      -7.89100000
