6
Properties=species:S:1:pos:R:3 frame=T 53=T |=T Written=T by=T MDAnalysis=T XYZWriter=T (release=T 2.4.3)=T pbc="F F F"
H        0.16432000     -16.55037000      -0.87170000
O        0.75503000     -16.97999000      -1.50574000
H        1.32799000     -17.55509000      -0.92587000
H        2.93429000     -17.13452000       0.98366000
O        2.38639000     -17.93020000       0.82309000
H        1.56871000     -17.72266000       1.29576000
