6
Properties=species:S:1:pos:R:3 frame=T 41=T |=T Written=T by=T MDAnalysis=T XYZWriter=T (release=T 2.4.3)=T pbc="F F F"
H      -13.63548000      12.24636000      16.59992000
O      -13.67727000      12.67538000      15.74631000
H      -14.62291000      12.74761000      15.53848000
H      -15.47762000      15.26460000      16.70987000
O      -16.13017000      14.65081000      16.32318000
H      -15.93550000      13.74198000      16.67000000
