6
Properties=species:S:1:pos:R:3 frame=T 47=T |=T Written=T by=T MDAnalysis=T XYZWriter=T (release=T 2.4.3)=T pbc="F F F"
H       13.01505000       8.77958000     -17.40454000
O       13.32002000       8.35511000     -16.61141000
H       12.51942000       8.36810000     -16.05001000
H       10.08434000       7.54925000     -18.45604000
O       10.64820000       7.42411000     -19.22651000
H       11.43326000       8.00678000     -19.14189000
