6
Properties=species:S:1:pos:R:3 frame=T 12=T |=T Written=T by=T MDAnalysis=T XYZWriter=T (release=T 2.4.3)=T pbc="F F F"
H      -10.03933000      17.25919000      -3.73147000
O       -9.28504000      17.82680000      -3.79409000
H       -8.56010000      17.41108000      -3.33370000
H      -11.62678000      18.02244000      -1.78275000
O      -11.51832000      17.61420000      -0.91065000
H      -10.70448000      18.01300000      -0.54889000
