6
Properties=species:S:1:pos:R:3 frame=T 19=T |=T Written=T by=T MDAnalysis=T XYZWriter=T (release=T 2.4.3)=T pbc="F F F"
H      -15.63760000      16.94214000      10.89723000
O      -14.92080000      17.59259000      10.83933000
H      -15.01960000      18.15211000      11.65088000
H      -12.53646000      19.42459000      11.86828000
O      -12.73746000      19.24434000      12.81718000
H      -12.35831000      18.38392000      13.02672000
