6
Properties=species:S:1:pos:R:3 frame=T 10=T |=T Written=T by=T MDAnalysis=T XYZWriter=T (release=T 2.4.3)=T pbc="F F F"
H       -4.71814000     -17.03473000       1.22759000
O       -4.54963000     -16.72928000       2.12654000
H       -3.88551000     -15.99876000       2.03369000
H       -0.97557000     -18.14024000       1.05603000
O       -1.69612000     -18.77466000       1.13981000
H       -2.46669000     -18.29256000       0.83371000
