6
Properties=species:S:1:pos:R:3 frame=T 32=T |=T Written=T by=T MDAnalysis=T XYZWriter=T (release=T 2.4.3)=T pbc="F F F"
H       -3.25160000      -3.66490000     -12.01122000
O       -4.12977000      -3.31170000     -12.28298000
H       -4.63488000      -3.26940000     -11.44466000
H       -3.62309000      -1.58393000     -10.08260000
O       -3.01570000      -1.34217000     -10.80877000
H       -3.53312000      -1.63766000     -11.57206000
