6
Properties=species:S:1:pos:R:3 frame=T 1=T |=T Written=T by=T MDAnalysis=T XYZWriter=T (release=T 2.4.3)=T pbc="F F F"
H      -15.97917000       7.42011000      13.54855000
O      -15.75768000       6.46666000      13.55731000
H      -16.42691000       6.12656000      14.12693000
H      -17.08090000       8.94197000      13.02333000
O      -16.29050000       9.13380000      13.53809000
H      -16.63601000       9.35692000      14.41972000
