6
Properties=species:S:1:pos:R:3 frame=T 52=T |=T Written=T by=T MDAnalysis=T XYZWriter=T (release=T 2.4.3)=T pbc="F F F"
H       15.85534000       5.38195000      -9.71924000
O       15.98460000       5.23616000     -10.65350000
H       15.09035000       5.35166000     -10.99498000
H       13.05571000       5.06805000      -8.45649000
O       13.88986000       4.58408000      -8.32188000
H       14.48598000       5.29928000      -8.07391000
