6
Properties=species:S:1:pos:R:3 frame=T 52=T |=T Written=T by=T MDAnalysis=T XYZWriter=T (release=T 2.4.3)=T pbc="F F F"
H       10.78590000      15.36025000      -5.97151000
O       10.58923000      14.43850000      -5.70948000
H       10.37472000      14.06394000      -6.56726000
H       11.40340000      17.78814000      -6.00298000
O       10.84800000      17.15393000      -5.50523000
H       10.46851000      17.70803000      -4.82120000
