6
Properties=species:S:1:pos:R:3 frame=T 51=T |=T Written=T by=T MDAnalysis=T XYZWriter=T (release=T 2.4.3)=T pbc="F F F"
H       15.91452000     -10.61117000      -8.39520000
O       16.83874000     -10.33581000      -8.21972000
H       16.88299000      -9.42742000      -8.48755000
H       18.45236000      -7.57096000      -7.99697000
O       17.52069000      -7.76728000      -7.97036000
H       17.19511000      -6.90748000      -7.73250000
