6
Properties=species:S:1:pos:R:3 frame=T 48=T |=T Written=T by=T MDAnalysis=T XYZWriter=T (release=T 2.4.3)=T pbc="F F F"
H       13.47071000      13.40444000       2.22701000
O       14.31920000      13.89601000       2.27262000
H       14.78719000      13.61538000       1.46551000
H       15.58749000      16.12700000       0.61177000
O       14.65281000      15.97240000       0.53726000
H       14.49102000      15.34244000       1.25166000
