6
Properties=species:S:1:pos:R:3 frame=T 17=T |=T Written=T by=T MDAnalysis=T XYZWriter=T (release=T 2.4.3)=T pbc="F F F"
H       -7.39044000     -18.50404000      -5.04478000
O       -7.93977000     -18.60020000      -4.26608000
H       -7.75783000     -17.84777000      -3.70180000
H       -5.96357000     -17.19604000      -5.61202000
O       -6.15878000     -17.98387000      -6.12799000
H       -5.29041000     -18.44998000      -6.22526000
