6
Properties=species:S:1:pos:R:3 frame=T 18=T |=T Written=T by=T MDAnalysis=T XYZWriter=T (release=T 2.4.3)=T pbc="F F F"
H       -7.32231000     -15.58616000     -12.66133000
O       -8.08338000     -15.02360000     -12.50757000
H       -8.16815000     -15.11480000     -11.54543000
H       -6.64894000     -17.48971000     -14.56171000
O       -6.72537000     -17.77166000     -13.66264000
H       -6.18464000     -17.11515000     -13.22383000
