6
Properties=species:S:1:pos:R:3 frame=T 44=T |=T Written=T by=T MDAnalysis=T XYZWriter=T (release=T 2.4.3)=T pbc="F F F"
H       -1.15544000       4.88327000       9.88583000
O       -1.70488000       5.56777000      10.25839000
H       -1.49329000       6.35919000       9.76831000
H        0.40937000       3.66219000       9.95249000
O       -0.12737000       3.00407000      10.40025000
H        0.53624000       2.64295000      11.02171000
