6
Properties=species:S:1:pos:R:3 frame=T 12=T |=T Written=T by=T MDAnalysis=T XYZWriter=T (release=T 2.4.3)=T pbc="F F F"
H       12.42354000      -7.12073000     -10.89656000
O       12.53532000      -7.74470000     -11.62635000
H       12.41818000      -8.61516000     -11.21636000
H       10.66672000      -6.70679000     -11.88518000
O       10.09157000      -6.70406000     -12.64853000
H       10.67783000      -7.04639000     -13.32568000
