6
Properties=species:S:1:pos:R:3 frame=T 45=T |=T Written=T by=T MDAnalysis=T XYZWriter=T (release=T 2.4.3)=T pbc="F F F"
H       17.54052000       6.96156000      -6.08843000
O       17.76477000       6.51157000      -5.24865000
H       17.44298000       5.61883000      -5.39661000
H       17.20747000       7.88273000      -8.71660000
O       17.15265000       7.89087000      -7.75016000
H       17.24683000       8.82007000      -7.48128000
