6
Properties=species:S:1:pos:R:3 frame=T 40=T |=T Written=T by=T MDAnalysis=T XYZWriter=T (release=T 2.4.3)=T pbc="F F F"
H       10.24804000      -6.65677000      17.09719000
O       11.21081000      -6.62174000      17.04827000
H       11.33799000      -6.41655000      16.11431000
H       11.77826000      -5.97073000      14.17880000
O       10.96984000      -5.70584000      14.62218000
H       11.01174000      -4.74526000      14.68671000
