6
Properties=species:S:1:pos:R:3 frame=T 36=T |=T Written=T by=T MDAnalysis=T XYZWriter=T (release=T 2.4.3)=T pbc="F F F"
H       18.11564000      -1.45860000      -1.94152000
O       18.71653000      -1.52605000      -2.73068000
H       18.27223000      -2.17931000      -3.30007000
H       18.83405000      -4.41793000      -2.90050000
O       17.89339000      -4.24748000      -3.13426000
H       17.36169000      -4.61930000      -2.42600000
