6
Properties=species:S:1:pos:R:3 frame=T 31=T |=T Written=T by=T MDAnalysis=T XYZWriter=T (release=T 2.4.3)=T pbc="F F F"
H       -7.13351000       9.14792000     -15.95072000
O       -7.42218000       9.15301000     -16.85202000
H       -7.53949000       8.19077000     -17.03591000
H       -7.77394000      11.01490000     -17.76677000
O       -7.82312000      11.94899000     -17.45798000
H       -7.00473000      12.09685000     -16.97201000
