6
Properties=species:S:1:pos:R:3 frame=T 49=T |=T Written=T by=T MDAnalysis=T XYZWriter=T (release=T 2.4.3)=T pbc="F F F"
H       -1.74189000      -6.12897000       6.14384000
O       -1.38484000      -6.17952000       7.00208000
H       -1.90212000      -6.85664000       7.42535000
H       -0.64826000      -5.73811000       4.38676000
O       -1.20855000      -5.81407000       3.56547000
H       -1.78097000      -6.59250000       3.71854000
