6
Properties=species:S:1:pos:R:3 frame=T 28=T |=T Written=T by=T MDAnalysis=T XYZWriter=T (release=T 2.4.3)=T pbc="F F F"
H      -11.46003000      18.13775000       8.56532000
O      -12.19887000      17.66071000       8.12221000
H      -11.84271000      17.48488000       7.25903000
H       -9.19314000      18.41518000       8.73160000
O      -10.05387000      18.49409000       9.15435000
H       -9.93972000      17.86920000       9.88743000
