6
Properties=species:S:1:pos:R:3 frame=T 26=T |=T Written=T by=T MDAnalysis=T XYZWriter=T (release=T 2.4.3)=T pbc="F F F"
H       13.20376000      11.38044000      15.48323000
O       12.73884000      12.23642000      15.62243000
H       12.74094000      12.64065000      14.75326000
H       14.79355000      13.22033000      13.77608000
O       14.49743000      12.86550000      12.93319000
H       14.15175000      13.62816000      12.45533000
