6
Properties=species:S:1:pos:R:3 frame=T 9=T |=T Written=T by=T MDAnalysis=T XYZWriter=T (release=T 2.4.3)=T pbc="F F F"
H       -5.39593000      -8.52895000     -10.52543000
O       -6.37476000      -8.41202000     -10.59618000
H       -6.67046000      -8.42193000      -9.67899000
H       -7.92986000      -9.56372000     -13.35569000
O       -7.79143000      -8.73327000     -12.86202000
H       -7.23126000      -8.93071000     -12.13172000
