6
Properties=species:S:1:pos:R:3 frame=T 29=T |=T Written=T by=T MDAnalysis=T XYZWriter=T (release=T 2.4.3)=T pbc="F F F"
H       10.63941000      17.91065000      -9.49169000
O       10.27672000      17.03962000      -9.69378000
H       11.08735000      16.51091000      -9.68381000
H       10.63179000      18.71921000     -11.28580000
O       10.94646000      18.72465000     -12.18790000
H       10.49476000      17.90741000     -12.47115000
