6
Properties=species:S:1:pos:R:3 frame=T 34=T |=T Written=T by=T MDAnalysis=T XYZWriter=T (release=T 2.4.3)=T pbc="F F F"
H       16.57537000      17.32777000     -13.60307000
O       17.16766000      17.99440000     -13.25690000
H       18.00539000      17.81144000     -13.70298000
H       15.55538000      19.09698000     -14.88628000
O       14.86009000      18.64965000     -15.40363000
H       14.94274000      17.75983000     -15.08827000
