6
Properties=species:S:1:pos:R:3 frame=T 38=T |=T Written=T by=T MDAnalysis=T XYZWriter=T (release=T 2.4.3)=T pbc="F F F"
H      -15.05126000     -11.81799000       6.93873000
O      -14.34824000     -12.10183000       6.33353000
H      -14.81269000     -12.08117000       5.46450000
H      -16.25243000     -10.48361000       8.81325000
O      -15.93027000     -11.40545000       8.71175000
H      -16.73791000     -11.92011000       8.75381000
