6
Properties=species:S:1:pos:R:3 frame=T 0=T |=T Written=T by=T MDAnalysis=T XYZWriter=T (release=T 2.4.3)=T pbc="F F F"
H       12.10191000       1.60243000     -13.42165000
O       12.54649000       2.40337000     -13.15585000
H       13.28112000       2.13461000     -12.62103000
H       13.46142000       4.69406000     -14.19471000
O       13.17987000       4.46534000     -15.12919000
H       13.12157000       3.49260000     -15.05501000
