6
Properties=species:S:1:pos:R:3 frame=T 27=T |=T Written=T by=T MDAnalysis=T XYZWriter=T (release=T 2.4.3)=T pbc="F F F"
H       18.34193000      -0.72718000      -4.28409000
O       19.17983000      -0.78529000      -3.83346000
H       19.42956000       0.14279000      -3.58769000
H       18.21505000      -0.65349000      -0.97982000
O       18.60065000      -1.54195000      -1.10878000
H       18.61097000      -1.60320000      -2.07865000
