6
Properties=species:S:1:pos:R:3 frame=T 35=T |=T Written=T by=T MDAnalysis=T XYZWriter=T (release=T 2.4.3)=T pbc="F F F"
H       -3.29317000     -13.84263000      14.60422000
O       -3.90060000     -14.35038000      14.07102000
H       -3.28178000     -14.83504000      13.51030000
H       -5.43954000     -13.32099000      13.10304000
O       -5.88517000     -12.71358000      12.50371000
H       -5.26128000     -11.97334000      12.47656000
