6
Properties=species:S:1:pos:R:3 frame=T 8=T |=T Written=T by=T MDAnalysis=T XYZWriter=T (release=T 2.4.3)=T pbc="F F F"
H       15.56342000      -1.43017000       9.30345000
O       15.68125000      -1.10518000      10.19707000
H       14.99749000      -1.62956000      10.61408000
H       15.90219000      -3.23695000       7.41205000
O       15.76885000      -2.28530000       7.52819000
H       16.42921000      -1.92375000       6.89523000
