6
Properties=species:S:1:pos:R:3 frame=T 35=T |=T Written=T by=T MDAnalysis=T XYZWriter=T (release=T 2.4.3)=T pbc="F F F"
H      -14.57701000     -13.11559000      -4.01859000
O      -14.53223000     -13.10257000      -3.01627000
H      -15.38618000     -13.47149000      -2.72867000
H      -14.86165000     -11.34142000      -2.69050000
O      -15.43601000     -10.58453000      -2.68247000
H      -15.43904000     -10.21773000      -3.56546000
