6
Properties=species:S:1:pos:R:3 frame=T 40=T |=T Written=T by=T MDAnalysis=T XYZWriter=T (release=T 2.4.3)=T pbc="F F F"
H       12.33028000      17.08302000      15.87967000
O       12.33945000      16.09981000      15.85147000
H       12.02487000      15.96619000      14.94284000
H       12.74010000      18.70899000      18.01493000
O       12.05010000      18.92055000      17.35032000
H       11.32915000      18.30791000      17.58089000
