6
Properties=species:S:1:pos:R:3 frame=T 42=T |=T Written=T by=T MDAnalysis=T XYZWriter=T (release=T 2.4.3)=T pbc="F F F"
H       -9.59500000      -3.25400000     -10.89260000
O       -9.04824000      -3.28733000     -11.68958000
H       -9.12800000      -2.40076000     -12.05631000
H       -7.51526000      -2.77570000      -8.86515000
O       -7.91366000      -1.91782000      -9.07347000
H       -8.81323000      -2.07370000      -9.35625000
