6
Properties=species:S:1:pos:R:3 frame=T 51=T |=T Written=T by=T MDAnalysis=T XYZWriter=T (release=T 2.4.3)=T pbc="F F F"
H       -7.77500000      -0.21723000      11.67232000
O       -6.99057000      -0.57206000      11.23557000
H       -6.70101000       0.16088000      10.60985000
H       -7.06639000       2.17403000       9.29366000
O       -7.39674000       1.77076000      10.10274000
H       -8.34865000       1.75850000       9.93114000
