6
Properties=species:S:1:pos:R:3 frame=T 20=T |=T Written=T by=T MDAnalysis=T XYZWriter=T (release=T 2.4.3)=T pbc="F F F"
H        9.94885000      -8.21123000      17.90629000
O       10.58507000      -7.70804000      18.39765000
H       11.41912000      -8.10516000      18.15375000
H       10.88298000      -5.87812000      15.97209000
O       10.63503000      -5.28613000      16.70817000
H       10.96371000      -5.77496000      17.43134000
