6
Properties=species:S:1:pos:R:3 frame=T 2=T |=T Written=T by=T MDAnalysis=T XYZWriter=T (release=T 2.4.3)=T pbc="F F F"
H        2.19975000       5.65282000      16.24626000
O        2.13117000       6.37919000      16.85835000
H        2.02075000       5.95119000      17.69683000
H        3.95924000       7.73498000      18.80427000
O        3.09624000       8.06869000      18.54383000
H        2.78155000       7.52547000      17.77332000
