6
Properties=species:S:1:pos:R:3 frame=T 2=T |=T Written=T by=T MDAnalysis=T XYZWriter=T (release=T 2.4.3)=T pbc="F F F"
H       -9.94026000      -2.87614000      10.82293000
O       -9.30260000      -2.21549000      11.11214000
H       -8.59016000      -2.42357000      10.51875000
H       -9.49740000       0.09079000      13.44765000
O       -9.63265000      -0.86040000      13.47492000
H       -9.38645000      -1.11012000      12.57383000
