6
Properties=species:S:1:pos:R:3 frame=T 27=T |=T Written=T by=T MDAnalysis=T XYZWriter=T (release=T 2.4.3)=T pbc="F F F"
H      -10.68533000       9.56467000      -5.14924000
O      -10.72468000       9.72141000      -4.19809000
H      -10.95461000      10.64831000      -4.11407000
H      -12.17672000       8.86987000      -5.76852000
O      -11.81159000       9.29208000      -6.54891000
H      -12.00301000       8.62234000      -7.22345000
