6
Properties=species:S:1:pos:R:3 frame=T 15=T |=T Written=T by=T MDAnalysis=T XYZWriter=T (release=T 2.4.3)=T pbc="F F F"
H       15.27452000      -1.82289000      -0.82328000
O       15.44150000      -1.22327000      -1.57558000
H       14.72393000      -1.49366000      -2.13318000
H       13.44171000      -2.14149000      -3.76981000
O       14.33329000      -2.49144000      -3.99178000
H       14.55759000      -3.15421000      -3.31044000
