6
Properties=species:S:1:pos:R:3 frame=T 25=T |=T Written=T by=T MDAnalysis=T XYZWriter=T (release=T 2.4.3)=T pbc="F F F"
H        7.86222000     -14.53222000     -11.05092000
O        8.82826000     -14.48817000     -11.15161000
H        9.18666000     -15.39713000     -11.01836000
H        8.08621000     -16.82849000     -12.31510000
O        8.90150000     -17.25326000     -11.98889000
H        9.55198000     -17.28538000     -12.73648000
