6
Properties=species:S:1:pos:R:3 frame=T 41=T |=T Written=T by=T MDAnalysis=T XYZWriter=T (release=T 2.4.3)=T pbc="F F F"
H       11.50006000       9.51008000       5.83341000
O       10.94909000       8.76414000       5.59020000
H       10.62674000       9.05712000       4.70502000
H        8.88152000      10.03919000       5.64382000
O        8.49520000      10.76560000       6.13017000
H        8.78919000      11.49673000       5.60818000
