6
Properties=species:S:1:pos:R:3 frame=T 17=T |=T Written=T by=T MDAnalysis=T XYZWriter=T (release=T 2.4.3)=T pbc="F F F"
H      -11.22067000     -11.33510000       3.76965000
O      -11.77982000     -10.63387000       4.14397000
H      -12.37281000     -11.12483000       4.72424000
H       -8.80185000     -10.19241000       5.44733000
O       -9.35746000     -10.95451000       5.21074000
H      -10.21278000     -10.56881000       5.02800000
