6
Properties=species:S:1:pos:R:3 frame=T 48=T |=T Written=T by=T MDAnalysis=T XYZWriter=T (release=T 2.4.3)=T pbc="F F F"
H        8.69293000      -6.30948000      -9.86963000
O        8.54156000      -5.35436000     -10.05106000
H        9.29157000      -5.12885000     -10.61269000
H        7.88601000      -8.24662000     -10.70103000
O        8.54894000      -8.16986000      -9.99315000
H        9.38820000      -8.04548000     -10.43526000
