6
Properties=species:S:1:pos:R:3 frame=T 14=T |=T Written=T by=T MDAnalysis=T XYZWriter=T (release=T 2.4.3)=T pbc="F F F"
H       -0.65588000     -10.78106000     -10.05134000
O        0.22866000     -11.08939000      -9.79949000
H        0.78145000     -10.62592000     -10.41918000
H       -2.56832000      -9.38745000      -9.12861000
O       -2.91267000     -10.26730000      -9.34690000
H       -3.86285000     -10.15994000      -9.15908000
