6
Properties=species:S:1:pos:R:3 frame=T 22=T |=T Written=T by=T MDAnalysis=T XYZWriter=T (release=T 2.4.3)=T pbc="F F F"
H        0.53323000       8.29265000      -7.67771000
O        1.18284000       8.92962000      -8.06135000
H        1.70662000       9.18593000      -7.28304000
H        1.65090000       7.79767000      -5.61365000
O        1.90057000       8.65692000      -5.25392000
H        1.06172000       9.16229000      -5.30632000
