6
Properties=species:S:1:pos:R:3 frame=T 26=T |=T Written=T by=T MDAnalysis=T XYZWriter=T (release=T 2.4.3)=T pbc="F F F"
H       12.45633000      -3.91691000      -2.54467000
O       12.58058000      -2.95962000      -2.54495000
H       11.83447000      -2.55752000      -2.12878000
H        9.92881000      -3.98569000      -3.11984000
O       10.23025000      -3.63388000      -3.98486000
H       11.19392000      -3.57557000      -3.84445000
