6
Properties=species:S:1:pos:R:3 frame=T 10=T |=T Written=T by=T MDAnalysis=T XYZWriter=T (release=T 2.4.3)=T pbc="F F F"
H       -4.42997000      16.57265000       1.71663000
O       -4.53850000      16.82687000       0.80005000
H       -4.11557000      16.12893000       0.30890000
H       -4.99164000      17.56088000       3.99212000
O       -4.81368000      16.63158000       4.16057000
H       -4.10861000      16.61087000       4.81833000
