6
Properties=species:S:1:pos:R:3 frame=T 20=T |=T Written=T by=T MDAnalysis=T XYZWriter=T (release=T 2.4.3)=T pbc="F F F"
H       -5.68340000      13.07510000     -18.30329000
O       -5.25978000      12.23320000     -18.09101000
H       -5.45103000      11.74375000     -18.90891000
H       -3.47586000      10.68811000     -17.54175000
O       -2.52796000      10.61938000     -17.69996000
H       -2.23178000      10.04750000     -16.98124000
