6
Properties=species:S:1:pos:R:3 frame=T 51=T |=T Written=T by=T MDAnalysis=T XYZWriter=T (release=T 2.4.3)=T pbc="F F F"
H      -11.30078000       4.98430000     -14.46732000
O      -10.98138000       4.10052000     -14.14978000
H      -10.86640000       3.57869000     -14.95142000
H      -12.23558000       6.78708000     -16.56250000
O      -11.51296000       6.90368000     -15.90787000
H      -10.80047000       7.40276000     -16.39507000
