6
Properties=species:S:1:pos:R:3 frame=T 40=T |=T Written=T by=T MDAnalysis=T XYZWriter=T (release=T 2.4.3)=T pbc="F F F"
H       -3.14841000      17.50248000       7.22110000
O       -2.41456000      16.87169000       7.13897000
H       -2.58109000      16.43810000       6.28999000
H       -1.10388000      15.76183000       5.00038000
O       -2.01806000      15.53129000       4.93846000
H       -2.12816000      14.74364000       5.47190000
