6
Properties=species:S:1:pos:R:3 frame=T 24=T |=T Written=T by=T MDAnalysis=T XYZWriter=T (release=T 2.4.3)=T pbc="F F F"
H        8.41614000      -3.49740000      17.09115000
O        8.97072000      -4.23808000      16.80923000
H        9.79103000      -3.79887000      16.50602000
H        8.81042000      -3.16691000      18.81394000
O        8.24616000      -2.43613000      19.11118000
H        7.44837000      -2.88433000      19.33713000
