6
Properties=species:S:1:pos:R:3 frame=T 18=T |=T Written=T by=T MDAnalysis=T XYZWriter=T (release=T 2.4.3)=T pbc="F F F"
H       11.65173000      11.92367000      -9.02215000
O       11.04671000      11.67440000      -9.76681000
H       11.47317000      12.00385000     -10.55075000
H       12.86798000      13.48065000     -11.46974000
O       12.37693000      12.80615000     -11.98994000
H       12.96995000      12.05915000     -11.89941000
