6
Properties=species:S:1:pos:R:3 frame=T 31=T |=T Written=T by=T MDAnalysis=T XYZWriter=T (release=T 2.4.3)=T pbc="F F F"
H       12.22406000      -8.83359000     -16.77159000
O       13.02701000      -8.35309000     -16.97473000
H       12.96739000      -8.23354000     -17.93870000
H       16.01666000      -9.29250000     -15.61489000
O       15.71483000      -8.83743000     -16.39349000
H       14.76759000      -8.94205000     -16.33393000
