6
Properties=species:S:1:pos:R:3 frame=T 36=T |=T Written=T by=T MDAnalysis=T XYZWriter=T (release=T 2.4.3)=T pbc="F F F"
H      -18.18644000       6.41716000       3.43059000
O      -17.72611000       6.49182000       4.25377000
H      -18.45025000       6.49351000       4.91632000
H      -17.81692000       9.10312000       2.31598000
O      -18.54984000       8.73954000       2.85677000
H      -18.09438000       8.29790000       3.61393000
