6
Properties=species:S:1:pos:R:3 frame=T 11=T |=T Written=T by=T MDAnalysis=T XYZWriter=T (release=T 2.4.3)=T pbc="F F F"
H        8.25312000      -6.88251000     -18.69181000
O        8.89085000      -7.56610000     -18.53402000
H        9.10380000      -7.37150000     -17.61544000
H        5.25591000      -7.31359000     -17.89308000
O        5.72472000      -8.05085000     -17.48388000
H        6.60189000      -7.99034000     -17.82364000
