6
Properties=species:S:1:pos:R:3 frame=T 18=T |=T Written=T by=T MDAnalysis=T XYZWriter=T (release=T 2.4.3)=T pbc="F F F"
H      -11.00647000     -12.04648000       9.06454000
O      -11.51562000     -12.83112000       8.82376000
H      -12.39015000     -12.62369000       9.11958000
H      -11.34313000     -10.44965000       6.50871000
O      -12.13270000     -10.28905000       7.06318000
H      -11.76060000     -10.36146000       7.93338000
