6
Properties=species:S:1:pos:R:3 frame=T 34=T |=T Written=T by=T MDAnalysis=T XYZWriter=T (release=T 2.4.3)=T pbc="F F F"
H      -13.56290000      14.23739000     -12.13183000
O      -14.37660000      13.76938000     -12.37829000
H      -14.66440000      14.26610000     -13.14236000
H      -14.18319000      11.84800000     -11.69128000
O      -14.62407000      10.98914000     -11.69822000
H      -14.37530000      10.64954000     -12.58617000
