6
Properties=species:S:1:pos:R:3 frame=T 41=T |=T Written=T by=T MDAnalysis=T XYZWriter=T (release=T 2.4.3)=T pbc="F F F"
H       11.86487000      -4.08548000       6.79556000
O       11.46471000      -4.29187000       7.65941000
H       10.55366000      -4.55984000       7.42111000
H       12.33949000      -7.35105000       7.08138000
O       11.67804000      -6.96037000       7.65640000
H       11.86793000      -5.98029000       7.62577000
