6
Properties=species:S:1:pos:R:3 frame=T 1=T |=T Written=T by=T MDAnalysis=T XYZWriter=T (release=T 2.4.3)=T pbc="F F F"
H        6.65474000      10.88850000      -1.69831000
O        6.53310000      10.61136000      -2.61315000
H        7.30605000      10.04796000      -2.77835000
H        8.25587000      12.36186000      -4.30757000
O        7.42723000      12.02851000      -4.66833000
H        6.98858000      11.59567000      -3.91394000
