6
Properties=species:S:1:pos:R:3 frame=T 8=T |=T Written=T by=T MDAnalysis=T XYZWriter=T (release=T 2.4.3)=T pbc="F F F"
H        5.33446000      16.71143000      -6.77064000
O        4.69042000      16.07229000      -7.01137000
H        4.76949000      16.01165000      -7.96969000
H        4.86849000      14.43874000      -5.84985000
O        5.07804000      13.58153000      -5.47797000
H        4.48983000      13.60576000      -4.72630000
