6
Properties=species:S:1:pos:R:3 frame=T 14=T |=T Written=T by=T MDAnalysis=T XYZWriter=T (release=T 2.4.3)=T pbc="F F F"
H      -15.64362000       3.95646000     -10.72009000
O      -14.99816000       4.01278000     -11.44194000
H      -15.18364000       3.24045000     -12.00765000
H      -14.75343000       5.71897000     -12.19744000
O      -15.26164000       6.37420000     -12.70977000
H      -16.09084000       6.42751000     -12.20552000
