6
Properties=species:S:1:pos:R:3 frame=T 19=T |=T Written=T by=T MDAnalysis=T XYZWriter=T (release=T 2.4.3)=T pbc="F F F"
H        3.62259000       6.06261000      -5.48328000
O        3.77055000       5.14222000      -5.40571000
H        3.35541000       4.76815000      -6.20206000
H        1.78360000       5.18906000      -3.15956000
O        2.01875000       4.37451000      -3.62795000
H        2.70010000       4.62657000      -4.30375000
