6
Properties=species:S:1:pos:R:3 frame=T 35=T |=T Written=T by=T MDAnalysis=T XYZWriter=T (release=T 2.4.3)=T pbc="F F F"
H        4.73591000       9.12805000       6.56591000
O        5.14533000       9.94876000       6.87345000
H        6.03021000       9.90023000       6.50915000
H        3.77439000       6.87552000       6.03844000
O        3.67687000       7.80131000       5.75785000
H        2.88392000       7.79786000       5.16139000
