6
Properties=species:S:1:pos:R:3 frame=T 18=T |=T Written=T by=T MDAnalysis=T XYZWriter=T (release=T 2.4.3)=T pbc="F F F"
H       -9.56937000     -17.68569000      11.79406000
O      -10.26115000     -17.08920000      12.08435000
H      -10.26931000     -17.23026000      13.02084000
H       -9.34388000     -17.46366000      15.47200000
O       -9.91298000     -17.97691000      14.87939000
H       -9.72259000     -18.86001000      15.17570000
