6
Properties=species:S:1:pos:R:3 frame=T 23=T |=T Written=T by=T MDAnalysis=T XYZWriter=T (release=T 2.4.3)=T pbc="F F F"
H       -3.27784000      -1.08964000      13.45753000
O       -2.55832000      -1.58123000      13.02363000
H       -1.81711000      -0.94901000      12.99614000
H       -4.82883000       0.31910000      14.01513000
O       -4.29916000      -0.25746000      14.57929000
H       -3.64429000       0.40620000      14.88727000
