6
Properties=species:S:1:pos:R:3 frame=T 33=T |=T Written=T by=T MDAnalysis=T XYZWriter=T (release=T 2.4.3)=T pbc="F F F"
H       -1.20119000     -15.78466000      17.32992000
O       -1.14142000     -14.97458000      16.79413000
H       -0.29521000     -15.07121000      16.36066000
H       -1.86279000     -18.21111000      14.98650000
O       -1.71345000     -17.45099000      15.52317000
H       -1.98571000     -17.75310000      16.39402000
