6
Properties=species:S:1:pos:R:3 frame=T 5=T |=T Written=T by=T MDAnalysis=T XYZWriter=T (release=T 2.4.3)=T pbc="F F F"
H       -1.27644000       5.94684000     -17.83745000
O       -0.58474000       5.27642000     -17.92673000
H       -0.08114000       5.40348000     -17.07137000
H       -3.65667000       4.87429000     -18.40317000
O       -3.29316000       4.40697000     -17.65955000
H       -2.34663000       4.58504000     -17.77779000
