6
Properties=species:S:1:pos:R:3 frame=T 10=T |=T Written=T by=T MDAnalysis=T XYZWriter=T (release=T 2.4.3)=T pbc="F F F"
H       -1.30334000      12.27211000       7.83365000
O       -1.12063000      12.34119000       6.88202000
H       -0.17380000      12.33573000       6.90305000
H       -0.19853000      14.39891000       7.50813000
O        0.10333000      15.22964000       7.13667000
H       -0.11307000      15.10512000       6.22727000
