6
Properties=species:S:1:pos:R:3 frame=T 13=T |=T Written=T by=T MDAnalysis=T XYZWriter=T (release=T 2.4.3)=T pbc="F F F"
H        9.68581000      -9.17798000      -8.93729000
O        9.37844000      -9.15846000      -9.87046000
H        8.75470000      -9.90240000     -10.00203000
H       10.95047000      -9.87468000     -10.04945000
O       11.84035000      -9.97181000     -10.42025000
H       12.38635000     -10.02825000      -9.63279000
