6
Properties=species:S:1:pos:R:3 frame=T 42=T |=T Written=T by=T MDAnalysis=T XYZWriter=T (release=T 2.4.3)=T pbc="F F F"
H      -11.67743000       2.23595000      -1.01091000
O      -11.79312000       3.10421000      -1.44701000
H      -11.32097000       3.02179000      -2.29325000
H       -8.94088000       1.59875000       0.12855000
O       -9.36891000       2.26883000       0.68048000
H       -9.85726000       2.76001000       0.03191000
