6
Properties=species:S:1:pos:R:3 frame=T 33=T |=T Written=T by=T MDAnalysis=T XYZWriter=T (release=T 2.4.3)=T pbc="F F F"
H      -15.67962000      11.40830000     -11.63016000
O      -15.04149000      11.00061000     -12.26024000
H      -14.17380000      11.02967000     -11.84027000
H      -11.27015000      11.04128000     -11.11808000
O      -12.12884000      11.35142000     -11.38346000
H      -12.65317000      11.42743000     -10.58223000
