6
Properties=species:S:1:pos:R:3 frame=T 15=T |=T Written=T by=T MDAnalysis=T XYZWriter=T (release=T 2.4.3)=T pbc="F F F"
H       17.95644000     -17.53677000       5.35087000
O       17.46733000     -16.95507000       4.75279000
H       17.97243000     -17.04460000       3.91501000
H       15.65443000     -14.32784000       4.56532000
O       15.34512000     -15.06605000       5.05790000
H       15.99917000     -15.72862000       4.88437000
