6
Properties=species:S:1:pos:R:3 frame=T 8=T |=T Written=T by=T MDAnalysis=T XYZWriter=T (release=T 2.4.3)=T pbc="F F F"
H        4.65579000      11.29001000     -15.52070000
O        4.89119000      11.25013000     -16.47157000
H        5.63906000      10.64073000     -16.47574000
H        2.45097000      12.93485000     -18.00522000
O        2.64965000      12.02752000     -17.75250000
H        3.61945000      11.94892000     -17.71248000
