6
Properties=species:S:1:pos:R:3 frame=T 30=T |=T Written=T by=T MDAnalysis=T XYZWriter=T (release=T 2.4.3)=T pbc="F F F"
H      -11.37467000      14.17466000     -15.57797000
O      -11.30584000      13.78633000     -16.44192000
H      -12.11177000      14.10731000     -16.87024000
H       -9.19334000      14.82034000     -18.91074000
O       -8.94059000      14.39124000     -18.09659000
H       -9.78366000      14.06788000     -17.75237000
