6
Properties=species:S:1:pos:R:3 frame=T 29=T |=T Written=T by=T MDAnalysis=T XYZWriter=T (release=T 2.4.3)=T pbc="F F F"
H       -8.65119000      -4.51981000     -15.37805000
O       -8.32984000      -3.79984000     -15.93205000
H       -8.95287000      -3.80798000     -16.65794000
H      -10.55618000      -4.92433000     -15.40906000
O      -10.46902000      -5.83490000     -15.07747000
H      -10.75305000      -5.80683000     -14.14020000
