6
Properties=species:S:1:pos:R:3 frame=T 44=T |=T Written=T by=T MDAnalysis=T XYZWriter=T (release=T 2.4.3)=T pbc="F F F"
H        1.91387000      -8.91133000       6.16552000
O        1.71717000      -8.73565000       7.09568000
H        0.97705000      -9.30576000       7.24604000
H        0.52093000      -8.08539000       3.76156000
O        1.15411000      -8.03973000       4.48965000
H        1.75020000      -7.32812000       4.22719000
