6
Properties=species:S:1:pos:R:3 frame=T 54=T |=T Written=T by=T MDAnalysis=T XYZWriter=T (release=T 2.4.3)=T pbc="F F F"
H        7.74719000      15.81673000     -14.90990000
O        8.56317000      15.86272000     -14.38414000
H        9.18843000      16.43423000     -14.84489000
H        8.60629000      14.46084000     -15.55951000
O        8.57249000      13.62859000     -16.08752000
H        9.19991000      13.04323000     -15.64163000
