6
Properties=species:S:1:pos:R:3 frame=T 2=T |=T Written=T by=T MDAnalysis=T XYZWriter=T (release=T 2.4.3)=T pbc="F F F"
H        4.99130000      -7.01958000     -17.52868000
O        4.97824000      -7.30632000     -18.45216000
H        4.25290000      -6.83435000     -18.88906000
H        3.71332000      -7.97083000     -15.47324000
O        3.18723000      -8.54837000     -16.04380000
H        3.60732000      -8.42299000     -16.90102000
