6
Properties=species:S:1:pos:R:3 frame=T 46=T |=T Written=T by=T MDAnalysis=T XYZWriter=T (release=T 2.4.3)=T pbc="F F F"
H       -6.54617000     -14.83785000     -18.96708000
O       -6.64865000     -14.50591000     -18.07128000
H       -5.79337000     -14.78122000     -17.66034000
H       -7.26478000     -12.68181000     -17.54354000
O       -6.89426000     -11.77791000     -17.47402000
H       -5.93781000     -11.84219000     -17.56443000
