6
Properties=species:S:1:pos:R:3 frame=T 53=T |=T Written=T by=T MDAnalysis=T XYZWriter=T (release=T 2.4.3)=T pbc="F F F"
H        2.63527000      13.92272000       1.65355000
O        2.54386000      14.87401000       1.85342000
H        3.44535000      15.22881000       1.70191000
H        1.43393000      14.62424000       0.46694000
O        1.09848000      14.53788000      -0.46449000
H        1.30626000      13.63766000      -0.69312000
