6
Properties=species:S:1:pos:R:3 frame=T 48=T |=T Written=T by=T MDAnalysis=T XYZWriter=T (release=T 2.4.3)=T pbc="F F F"
H      -17.05289000      14.74758000      -4.82875000
O      -17.61253000      15.03052000      -4.07438000
H      -16.93363000      15.13240000      -3.39961000
H      -16.55994000      13.36934000      -7.14291000
O      -16.82323000      14.13367000      -6.62703000
H      -16.34669000      14.86129000      -7.05533000
