6
Properties=species:S:1:pos:R:3 frame=T 37=T |=T Written=T by=T MDAnalysis=T XYZWriter=T (release=T 2.4.3)=T pbc="F F F"
H       -1.22892000      15.17223000      -7.83884000
O       -0.71285000      15.35201000      -7.03274000
H       -1.24177000      16.07804000      -6.60128000
H       -2.28758000      18.17875000      -6.30020000
O       -1.41459000      17.77903000      -6.10523000
H       -0.91672000      17.85469000      -6.94497000
