6
Properties=species:S:1:pos:R:3 frame=T 51=T |=T Written=T by=T MDAnalysis=T XYZWriter=T (release=T 2.4.3)=T pbc="F F F"
H       15.43827000      -6.76368000       8.58050000
O       15.79536000      -7.01564000       7.72076000
H       15.06989000      -7.55235000       7.30997000
H       12.71030000      -7.63985000       6.32283000
O       12.91828000      -7.90851000       7.18762000
H       12.38216000      -7.39941000       7.80193000
