6
Properties=species:S:1:pos:R:3 frame=T 20=T |=T Written=T by=T MDAnalysis=T XYZWriter=T (release=T 2.4.3)=T pbc="F F F"
H       14.79160000       2.50673000      15.72341000
O       14.08965000       3.11968000      15.96014000
H       14.46419000       3.94309000      15.57220000
H       15.91765000       5.95880000      14.82237000
O       15.08982000       6.07928000      15.30492000
H       15.38136000       6.03376000      16.20578000
