6
Properties=species:S:1:pos:R:3 frame=T 38=T |=T Written=T by=T MDAnalysis=T XYZWriter=T (release=T 2.4.3)=T pbc="F F F"
H       12.00058000      17.73528000      -5.48661000
O       12.11732000      18.45005000      -6.09154000
H       11.27886000      18.93379000      -5.96229000
H        7.86270000      16.89606000      -5.86318000
O        8.76275000      16.67060000      -6.19682000
H        9.31246000      17.38027000      -5.87486000
