6
Properties=species:S:1:pos:R:3 frame=T 22=T |=T Written=T by=T MDAnalysis=T XYZWriter=T (release=T 2.4.3)=T pbc="F F F"
H       17.08479000     -14.39637000     -15.93379000
O       16.77730000     -13.79180000     -16.59816000
H       15.90966000     -14.15229000     -16.81095000
H       14.24525000     -14.38380000     -16.52906000
O       14.38570000     -14.92003000     -15.72527000
H       14.90993000     -15.65553000     -16.08871000
