6
Properties=species:S:1:pos:R:3 frame=T 14=T |=T Written=T by=T MDAnalysis=T XYZWriter=T (release=T 2.4.3)=T pbc="F F F"
H        1.87293000       7.30541000      18.85007000
O        2.64569000       7.24876000      18.27785000
H        2.83688000       8.16240000      18.09468000
H        1.02158000       7.22047000      16.93781000
O        0.11774000       7.55573000      17.00493000
H        0.15542000       7.92527000      17.86264000
