6
Properties=species:S:1:pos:R:3 frame=T 25=T |=T Written=T by=T MDAnalysis=T XYZWriter=T (release=T 2.4.3)=T pbc="F F F"
H        3.40717000     -11.88253000     -10.49185000
O        2.76614000     -11.35794000     -10.94853000
H        3.21056000     -11.25395000     -11.79912000
H        3.00908000      -9.70299000     -10.86477000
O        3.67547000      -8.99311000     -10.77280000
H        3.25566000      -8.26388000     -10.26404000
