6
Properties=species:S:1:pos:R:3 frame=T 43=T |=T Written=T by=T MDAnalysis=T XYZWriter=T (release=T 2.4.3)=T pbc="F F F"
H       14.67871000      -1.57942000     -10.93206000
O       15.12184000      -1.36265000     -11.76421000
H       16.01429000      -1.71536000     -11.55995000
H       14.12043000      -3.83220000     -13.25391000
O       14.90009000      -3.30558000     -13.53284000
H       14.97495000      -2.66064000     -12.78764000
