6
Properties=species:S:1:pos:R:3 frame=T 30=T |=T Written=T by=T MDAnalysis=T XYZWriter=T (release=T 2.4.3)=T pbc="F F F"
H       -2.67419000      17.21790000      -8.99843000
O       -2.32437000      16.82850000      -9.81815000
H       -2.72089000      15.93111000      -9.74574000
H       -2.55244000      18.59068000      -7.72069000
O       -3.49333000      18.38385000      -7.77185000
H       -3.79310000      18.91324000      -8.49038000
