6
Properties=species:S:1:pos:R:3 frame=T 42=T |=T Written=T by=T MDAnalysis=T XYZWriter=T (release=T 2.4.3)=T pbc="F F F"
H      -14.28661000      -9.32578000       3.89096000
O      -13.69208000      -8.90479000       4.51339000
H      -13.85764000      -9.43897000       5.29647000
H      -12.96264000      -5.88849000       4.08882000
O      -12.30574000      -6.51962000       3.83407000
H      -12.78091000      -7.35934000       3.72204000
