6
Properties=species:S:1:pos:R:3 frame=T 32=T |=T Written=T by=T MDAnalysis=T XYZWriter=T (release=T 2.4.3)=T pbc="F F F"
H      -16.51096000     -13.07835000     -13.40249000
O      -16.68856000     -12.14096000     -13.61991000
H      -17.41923000     -12.18907000     -14.23692000
H      -16.41283000     -14.31589000     -11.38163000
O      -15.90407000     -14.29958000     -12.22874000
H      -16.56312000     -14.63631000     -12.88352000
