6
Properties=species:S:1:pos:R:3 frame=T 45=T |=T Written=T by=T MDAnalysis=T XYZWriter=T (release=T 2.4.3)=T pbc="F F F"
H        0.66417000       4.26636000       1.20444000
O        0.52493000       5.13986000       0.80239000
H        0.53858000       4.91121000      -0.11303000
H        0.86606000       6.31350000       2.25469000
O        1.19081000       6.79642000       3.03595000
H        0.47241000       7.40115000       3.22342000
