6
Properties=species:S:1:pos:R:3 frame=T 5=T |=T Written=T by=T MDAnalysis=T XYZWriter=T (release=T 2.4.3)=T pbc="F F F"
H       17.02694000       5.62797000     -14.90752000
O       16.12899000       5.67428000     -14.58170000
H       16.09481000       6.48444000     -14.02322000
H       14.13101000       5.85827000     -14.78831000
O       13.26971000       6.24541000     -14.77556000
H       12.82725000       5.89392000     -15.54142000
