6
Properties=species:S:1:pos:R:3 frame=T 26=T |=T Written=T by=T MDAnalysis=T XYZWriter=T (release=T 2.4.3)=T pbc="F F F"
H        7.88882000       8.62615000       6.79551000
O        8.67835000       8.67476000       7.29149000
H        8.32957000       8.70010000       8.19619000
H        6.09235000       8.72025000       5.00530000
O        7.04710000       8.67021000       5.14614000
H        7.41124000       8.58448000       4.25591000
