6
Properties=species:S:1:pos:R:3 frame=T 24=T |=T Written=T by=T MDAnalysis=T XYZWriter=T (release=T 2.4.3)=T pbc="F F F"
H      -11.63955000     -12.14154000      -6.47950000
O      -10.82859000     -11.58933000      -6.46296000
H      -11.12169000     -10.80360000      -6.95531000
H       -9.75176000      -8.79252000      -8.62010000
O      -10.49021000      -9.09581000      -8.05847000
H      -10.18315000      -8.94576000      -7.17044000
