6
Properties=species:S:1:pos:R:3 frame=T 41=T |=T Written=T by=T MDAnalysis=T XYZWriter=T (release=T 2.4.3)=T pbc="F F F"
H       17.27600000      -9.67234000      10.40811000
O       17.78927000      -9.12398000       9.80515000
H       17.77000000      -8.26518000      10.24988000
H       17.26167000     -10.18868000      12.95888000
O       17.04382000     -10.87297000      12.28785000
H       17.85625000     -11.37882000      12.24897000
