6
Properties=species:S:1:pos:R:3 frame=T 32=T |=T Written=T by=T MDAnalysis=T XYZWriter=T (release=T 2.4.3)=T pbc="F F F"
H      -17.26816000      -9.73673000      14.80044000
O      -17.12845000      -9.20566000      13.99664000
H      -17.42218000      -9.81491000      13.32132000
H      -17.54127000     -10.61407000      11.15901000
O      -17.94118000     -10.67539000      12.03546000
H      -18.61968000      -9.98850000      12.02660000
