6
Properties=species:S:1:pos:R:3 frame=T 2=T |=T Written=T by=T MDAnalysis=T XYZWriter=T (release=T 2.4.3)=T pbc="F F F"
H        8.78353000       3.62713000       0.04441000
O        8.44973000       2.77025000       0.33901000
H        9.26516000       2.29377000       0.54315000
H        7.64599000       2.14569000      -1.15563000
O        7.56807000       1.60551000      -1.94595000
H        8.33872000       1.05379000      -1.96983000
