6
Properties=species:S:1:pos:R:3 frame=T 26=T |=T Written=T by=T MDAnalysis=T XYZWriter=T (release=T 2.4.3)=T pbc="F F F"
H       17.04855000       5.92606000      11.73418000
O       17.38691000       5.68829000      12.61602000
H       17.04535000       6.42298000      13.19323000
H       16.33835000       5.79852000       9.21868000
O       16.73945000       5.91707000      10.09802000
H       16.20774000       6.63703000      10.48729000
