6
Properties=species:S:1:pos:R:3 frame=T 12=T |=T Written=T by=T MDAnalysis=T XYZWriter=T (release=T 2.4.3)=T pbc="F F F"
H      -15.40412000      16.92416000     -10.95443000
O      -15.31361000      16.05000000     -10.51743000
H      -15.18594000      16.19488000      -9.57521000
H      -12.26192000      15.49443000     -11.16865000
O      -12.92085000      16.13617000     -11.42621000
H      -13.66512000      15.98126000     -10.84804000
