6
Properties=species:S:1:pos:R:3 frame=T 26=T |=T Written=T by=T MDAnalysis=T XYZWriter=T (release=T 2.4.3)=T pbc="F F F"
H       -0.85610000      11.72404000      15.81512000
O       -1.09214000      12.41973000      15.19204000
H       -2.04701000      12.22974000      15.08171000
H        1.45543000      10.90829000      17.37159000
O        0.69440000      11.05055000      16.78179000
H        0.86207000      10.40360000      16.09970000
