6
Properties=species:S:1:pos:R:3 frame=T 16=T |=T Written=T by=T MDAnalysis=T XYZWriter=T (release=T 2.4.3)=T pbc="F F F"
H      -14.25976000      11.42469000       3.96142000
O      -13.39694000      11.40154000       4.40128000
H      -12.78492000      11.69771000       3.70748000
H      -12.54691000       9.93813000       4.24965000
O      -12.08414000       9.35614000       3.62403000
H      -11.98339000       8.54025000       4.10412000
