6
Properties=species:S:1:pos:R:3 frame=T 10=T |=T Written=T by=T MDAnalysis=T XYZWriter=T (release=T 2.4.3)=T pbc="F F F"
H      -13.24668000      16.88455000      14.14679000
O      -12.35112000      17.19220000      14.09162000
H      -12.34161000      17.60143000      13.17833000
H      -13.95280000      17.13546000      16.44330000
O      -13.16535000      16.59639000      16.54886000
H      -12.53659000      16.90040000      15.90036000
