6
Properties=species:S:1:pos:R:3 frame=T 16=T |=T Written=T by=T MDAnalysis=T XYZWriter=T (release=T 2.4.3)=T pbc="F F F"
H        5.60807000       9.31022000      -5.50527000
O        5.26785000       8.78664000      -6.23976000
H        4.43412000       8.43060000      -5.92237000
H        5.34693000      10.17112000      -3.56625000
O        6.16425000       9.66598000      -3.64292000
H        6.02743000       8.84343000      -3.15578000
