6
Properties=species:S:1:pos:R:3 frame=T 22=T |=T Written=T by=T MDAnalysis=T XYZWriter=T (release=T 2.4.3)=T pbc="F F F"
H      -17.82239000       9.32413000      17.06715000
O      -17.29088000       8.82345000      17.67256000
H      -16.39195000       9.11518000      17.41026000
H      -16.51192000      12.16296000      18.30362000
O      -17.17740000      11.83487000      17.64809000
H      -16.66367000      11.12365000      17.28709000
