6
Properties=species:S:1:pos:R:3 frame=T 17=T |=T Written=T by=T MDAnalysis=T XYZWriter=T (release=T 2.4.3)=T pbc="F F F"
H        3.72869000       5.83224000       1.76523000
O        3.89895000       5.27585000       2.53748000
H        4.63663000       5.67887000       3.00865000
H        5.42971000       6.72358000      -0.07419000
O        4.55110000       6.88207000       0.27804000
H        4.39586000       7.85632000       0.19392000
