6
Properties=species:S:1:pos:R:3 frame=T 1=T |=T Written=T by=T MDAnalysis=T XYZWriter=T (release=T 2.4.3)=T pbc="F F F"
H       -2.04420000     -10.86336000     -13.88975000
O       -2.40404000     -10.98524000     -14.77468000
H       -1.81653000     -11.66392000     -15.13969000
H       -3.83848000     -13.65873000     -13.81154000
O       -4.49970000     -12.96965000     -13.82937000
H       -4.08217000     -12.13688000     -14.13379000
