6
Properties=species:S:1:pos:R:3 frame=T 13=T |=T Written=T by=T MDAnalysis=T XYZWriter=T (release=T 2.4.3)=T pbc="F F F"
H       -6.63171000      13.72903000      -8.18574000
O       -6.63940000      13.14448000      -7.41664000
H       -5.67273000      12.96653000      -7.33348000
H       -7.44012000      13.90813000      -5.98648000
O       -7.79510000      14.69269000      -5.56410000
H       -7.15393000      15.38553000      -5.72858000
