6
Properties=species:S:1:pos:R:3 frame=T 48=T |=T Written=T by=T MDAnalysis=T XYZWriter=T (release=T 2.4.3)=T pbc="F F F"
H       16.38616000      -5.02115000     -10.94606000
O       16.06793000      -4.86842000     -10.05812000
H       15.12489000      -4.84924000     -10.18653000
H       17.11357000      -3.22953000     -11.77897000
O       16.64009000      -2.46443000     -12.11054000
H       16.66735000      -1.83322000     -11.36301000
