6
Properties=species:S:1:pos:R:3 frame=T 21=T |=T Written=T by=T MDAnalysis=T XYZWriter=T (release=T 2.4.3)=T pbc="F F F"
H       -1.73755000      -5.92859000      14.57804000
O       -1.75779000      -5.71915000      15.55324000
H       -1.16927000      -6.35902000      15.91710000
H        0.69834000      -5.71997000      16.83442000
O        0.55121000      -6.66147000      16.93752000
H        0.75678000      -7.00777000      16.06765000
