6
Properties=species:S:1:pos:R:3 frame=T 14=T |=T Written=T by=T MDAnalysis=T XYZWriter=T (release=T 2.4.3)=T pbc="F F F"
H        1.36411000       4.93976000      14.45200000
O        1.88623000       5.61221000      14.87820000
H        2.77419000       5.26709000      14.78593000
H        0.67500000       7.58573000      12.08311000
O        1.16376000       7.77064000      12.89537000
H        1.61186000       6.93427000      13.12890000
