6
Properties=species:S:1:pos:R:3 frame=T 18=T |=T Written=T by=T MDAnalysis=T XYZWriter=T (release=T 2.4.3)=T pbc="F F F"
H      -13.30386000       8.83755000     -18.57287000
O      -13.48919000       9.76685000     -18.29684000
H      -14.20759000       9.69764000     -17.63517000
H      -14.59268000       8.63176000     -15.78252000
O      -15.24872000       8.72131000     -16.47036000
H      -15.65034000       7.87248000     -16.61700000
