6
Properties=species:S:1:pos:R:3 frame=T 22=T |=T Written=T by=T MDAnalysis=T XYZWriter=T (release=T 2.4.3)=T pbc="F F F"
H       10.98331000      -6.03574000       7.76738000
O       11.54785000      -5.93295000       7.00181000
H       11.17824000      -5.17776000       6.53827000
H        9.73832000      -3.27310000       6.33081000
O       10.10977000      -3.82940000       5.61158000
H        9.58949000      -4.64814000       5.61574000
