6
Properties=species:S:1:pos:R:3 frame=T 16=T |=T Written=T by=T MDAnalysis=T XYZWriter=T (release=T 2.4.3)=T pbc="F F F"
H       -8.26766000      -5.41801000      -8.16157000
O       -8.46545000      -5.15878000      -7.25092000
H       -8.83933000      -5.98605000      -6.89031000
H      -10.89156000      -3.93325000      -6.68915000
O      -10.56657000      -3.42778000      -7.45337000
H       -9.71913000      -3.85063000      -7.65452000
