6
Properties=species:S:1:pos:R:3 frame=T 0=T |=T Written=T by=T MDAnalysis=T XYZWriter=T (release=T 2.4.3)=T pbc="F F F"
H        9.93488000      -2.03467000       2.66272000
O       10.07679000      -2.54532000       1.88625000
H        9.54008000      -2.05395000       1.23465000
H        8.56628000      -2.17236000      -1.04829000
O        8.82788000      -1.68249000      -0.22912000
H        9.78077000      -1.53666000      -0.32540000
