6
Properties=species:S:1:pos:R:3 frame=T 6=T |=T Written=T by=T MDAnalysis=T XYZWriter=T (release=T 2.4.3)=T pbc="F F F"
H       15.29982000       7.48952000      16.14820000
O       15.63552000       8.23325000      15.64818000
H       15.38231000       7.98942000      14.75250000
H       14.23477000       5.75422000      16.74314000
O       14.84775000       6.34906000      17.23028000
H       15.65855000       5.77981000      17.24326000
