6
Properties=species:S:1:pos:R:3 frame=T 39=T |=T Written=T by=T MDAnalysis=T XYZWriter=T (release=T 2.4.3)=T pbc="F F F"
H       -1.47817000       7.92699000       5.33336000
O       -0.79333000       7.52997000       5.84154000
H       -0.87670000       8.00737000       6.70691000
H        0.32190000       8.68113000       8.28251000
O       -0.63120000       8.55384000       8.23518000
H       -1.02137000       9.38925000       8.03755000
