6
Properties=species:S:1:pos:R:3 frame=T 45=T |=T Written=T by=T MDAnalysis=T XYZWriter=T (release=T 2.4.3)=T pbc="F F F"
H        4.52359000       3.46313000      -1.87097000
O        5.43920000       3.39744000      -1.59885000
H        5.94457000       3.51561000      -2.41220000
H        2.64676000       4.06609000      -2.49878000
O        2.66115000       3.15502000      -2.24269000
H        3.01793000       2.69530000      -3.00371000
