6
Properties=species:S:1:pos:R:3 frame=T 25=T |=T Written=T by=T MDAnalysis=T XYZWriter=T (release=T 2.4.3)=T pbc="F F F"
H      -17.93280000       3.79474000      12.02974000
O      -17.67875000       4.16858000      11.17016000
H      -16.71599000       4.27883000      11.23333000
H      -18.60519000       4.70780000      13.60637000
O      -18.06712000       3.96438000      13.86835000
H      -18.76011000       3.26635000      13.98212000
