6
Properties=species:S:1:pos:R:3 frame=T 25=T |=T Written=T by=T MDAnalysis=T XYZWriter=T (release=T 2.4.3)=T pbc="F F F"
H      -12.81032000      -9.15126000     -17.04015000
O      -12.29739000      -9.95772000     -17.09807000
H      -12.72607000     -10.43893000     -17.79774000
H      -14.77858000      -9.41364000     -17.24174000
O      -15.70448000      -9.71215000     -17.35828000
H      -16.08558000      -9.44621000     -16.51191000
