6
Properties=species:S:1:pos:R:3 frame=T 23=T |=T Written=T by=T MDAnalysis=T XYZWriter=T (release=T 2.4.3)=T pbc="F F F"
H        0.15195000      -6.39779000       9.75228000
O        0.27503000      -5.95904000      10.61168000
H        1.07536000      -5.42102000      10.44204000
H       -0.52705000      -4.84637000      11.51732000
O       -1.02452000      -4.09073000      11.84238000
H       -1.01254000      -3.47978000      11.09753000
