6
Properties=species:S:1:pos:R:3 frame=T 22=T |=T Written=T by=T MDAnalysis=T XYZWriter=T (release=T 2.4.3)=T pbc="F F F"
H       -1.13995000      -9.48501000       1.86162000
O       -0.81059000      -8.92260000       2.54410000
H       -0.87710000      -9.46770000       3.35164000
H       -2.16941000      -8.00453000       3.46575000
O       -2.62472000      -7.57738000       4.18242000
H       -2.13903000      -7.80035000       4.97788000
