6
Properties=species:S:1:pos:R:3 frame=T 10=T |=T Written=T by=T MDAnalysis=T XYZWriter=T (release=T 2.4.3)=T pbc="F F F"
H       10.14900000     -16.95871000       5.38897000
O       10.79463000     -17.48279000       4.86564000
H       11.38960000     -17.81075000       5.54093000
H       11.81043000     -16.17052000       4.19932000
O       12.27983000     -15.36707000       3.95747000
H       12.50479000     -14.92750000       4.80363000
