6
Properties=species:S:1:pos:R:3 frame=T 3=T |=T Written=T by=T MDAnalysis=T XYZWriter=T (release=T 2.4.3)=T pbc="F F F"
H        6.76611000     -13.54039000      -6.64415000
O        6.20512000     -13.66172000      -5.86639000
H        6.84829000     -13.70617000      -5.14881000
H        5.69637000     -16.44732000      -5.96645000
O        4.79920000     -16.07207000      -5.99523000
H        4.93808000     -15.12914000      -5.90398000
