6
Properties=species:S:1:pos:R:3 frame=T 19=T |=T Written=T by=T MDAnalysis=T XYZWriter=T (release=T 2.4.3)=T pbc="F F F"
H       18.87355000       2.96172000      -4.12098000
O       18.72082000       3.74083000      -4.67473000
H       18.08484000       3.40589000      -5.29979000
H       18.31172000       5.86162000      -3.55113000
O       18.66776000       6.72237000      -3.41801000
H       18.58704000       7.17804000      -4.29186000
