6
Properties=species:S:1:pos:R:3 frame=T 2=T |=T Written=T by=T MDAnalysis=T XYZWriter=T (release=T 2.4.3)=T pbc="F F F"
H        9.41170000       7.90488000     -17.57108000
O        8.54522000       7.84858000     -18.02625000
H        8.22797000       6.97814000     -17.75792000
H        9.53153000       5.44574000     -17.66129000
O        8.72300000       5.32546000     -17.16486000
H        8.99017000       5.51196000     -16.28150000
