6
Properties=species:S:1:pos:R:3 frame=T 10=T |=T Written=T by=T MDAnalysis=T XYZWriter=T (release=T 2.4.3)=T pbc="F F F"
H       -9.72974000     -18.51698000     -11.68989000
O       -8.99709000     -17.91034000     -11.82040000
H       -9.46418000     -17.11841000     -11.46352000
H       -5.71722000     -18.02733000     -11.87245000
O       -5.83280000     -17.15574000     -12.30093000
H       -6.76777000     -17.05427000     -12.27804000
