6
Properties=species:S:1:pos:R:3 frame=T 39=T |=T Written=T by=T MDAnalysis=T XYZWriter=T (release=T 2.4.3)=T pbc="F F F"
H       -1.06179000      12.97006000      14.74146000
O       -1.21116000      13.36189000      13.87770000
H       -0.56239000      14.06919000      13.84254000
H       -3.99767000      14.34446000      16.06879000
O       -3.70404000      14.70496000      15.22841000
H       -3.07432000      14.08018000      14.86024000
