6
Properties=species:S:1:pos:R:3 frame=T 50=T |=T Written=T by=T MDAnalysis=T XYZWriter=T (release=T 2.4.3)=T pbc="F F F"
H      -10.44502000     -16.13287000      18.38714000
O      -11.40166000     -16.03376000      18.31656000
H      -11.57491000     -15.06709000      18.21014000
H      -11.88741000     -12.36681000      18.67125000
O      -11.10281000     -12.79462000      18.35951000
H      -10.63683000     -13.13805000      19.12812000
