6
Properties=species:S:1:pos:R:3 frame=T 47=T |=T Written=T by=T MDAnalysis=T XYZWriter=T (release=T 2.4.3)=T pbc="F F F"
H       15.73711000     -14.06201000     -17.39948000
O       16.59114000     -13.93297000     -16.93204000
H       16.67872000     -13.00174000     -16.88511000
H       13.74089000     -14.00038000     -18.07613000
O       14.34676000     -14.48148000     -18.63778000
H       14.74186000     -13.78065000     -19.17291000
