6
Properties=species:S:1:pos:R:3 frame=T 20=T |=T Written=T by=T MDAnalysis=T XYZWriter=T (release=T 2.4.3)=T pbc="F F F"
H        9.64913000     -17.41677000      -4.50999000
O       10.12018000     -18.22901000      -4.28607000
H        9.72028000     -18.92146000      -4.84551000
H        6.39873000     -18.81761000      -3.27623000
O        7.28862000     -18.60598000      -3.54490000
H        7.53315000     -19.29967000      -4.21363000
