6
Properties=species:S:1:pos:R:3 frame=T 11=T |=T Written=T by=T MDAnalysis=T XYZWriter=T (release=T 2.4.3)=T pbc="F F F"
H       11.62462000       8.22606000       4.99287000
O       12.42830000       8.08548000       5.50513000
H       13.13312000       7.97354000       4.87163000
H       15.17394000       8.22856000       3.99016000
O       14.93441000       7.43317000       4.42218000
H       15.79309000       7.08562000       4.76052000
