6
Properties=species:S:1:pos:R:3 frame=T 3=T |=T Written=T by=T MDAnalysis=T XYZWriter=T (release=T 2.4.3)=T pbc="F F F"
H       -1.10252000      15.71806000      10.36315000
O       -1.69031000      15.08280000      10.82283000
H       -2.51280000      15.57526000      10.92052000
H        1.03662000      15.21490000       9.94209000
O        0.97851000      15.53900000      10.83407000
H        0.37374000      14.89675000      11.27496000
