6
Properties=species:S:1:pos:R:3 frame=T 34=T |=T Written=T by=T MDAnalysis=T XYZWriter=T (release=T 2.4.3)=T pbc="F F F"
H      -13.63120000       0.17484000      -1.82709000
O      -14.06957000      -0.66362000      -1.82869000
H      -13.92750000      -0.95800000      -2.72650000
H      -17.25498000       0.98432000      -2.43439000
O      -17.03668000       0.09282000      -2.10115000
H      -16.07668000       0.12007000      -1.96223000
