6
Properties=species:S:1:pos:R:3 frame=T 45=T |=T Written=T by=T MDAnalysis=T XYZWriter=T (release=T 2.4.3)=T pbc="F F F"
H      -18.78449000     -16.54592000      13.65972000
O      -18.19216000     -15.81162000      13.49108000
H      -17.73481000     -15.68780000      14.34033000
H      -16.61887000     -18.33421000      12.52574000
O      -16.73827000     -18.40191000      13.49807000
H      -17.68803000     -18.26964000      13.53668000
