6
Properties=species:S:1:pos:R:3 frame=T 54=T |=T Written=T by=T MDAnalysis=T XYZWriter=T (release=T 2.4.3)=T pbc="F F F"
H      -14.23865000       9.00319000      -5.65107000
O      -14.75601000       9.64894000      -6.13453000
H      -14.65677000      10.46821000      -5.63739000
H      -17.71817000       8.41639000      -6.91821000
O      -16.91411000       8.39106000      -7.43130000
H      -16.36128000       9.10733000      -7.09708000
