6
Properties=species:S:1:pos:R:3 frame=T 20=T |=T Written=T by=T MDAnalysis=T XYZWriter=T (release=T 2.4.3)=T pbc="F F F"
H        5.95189000      -6.73677000      -8.16445000
O        6.49197000      -7.41856000      -8.63890000
H        7.32008000      -6.97017000      -8.77152000
H        6.05168000      -6.48160000      -6.18471000
O        6.89909000      -6.19357000      -5.89080000
H        6.86841000      -5.24371000      -5.98611000
