6
Properties=species:S:1:pos:R:3 frame=T 37=T |=T Written=T by=T MDAnalysis=T XYZWriter=T (release=T 2.4.3)=T pbc="F F F"
H       -2.58232000     -15.02386000     -17.44301000
O       -2.32201000     -15.14298000     -18.36759000
H       -3.04061000     -15.59624000     -18.75966000
H       -4.62637000     -17.30611000     -18.47801000
O       -3.96340000     -17.69240000     -19.06065000
H       -3.41030000     -18.17267000     -18.41265000
