6
Properties=species:S:1:pos:R:3 frame=T 26=T |=T Written=T by=T MDAnalysis=T XYZWriter=T (release=T 2.4.3)=T pbc="F F F"
H       -2.41553000      13.54716000       4.40076000
O       -1.69380000      13.93330000       3.82927000
H       -1.01325000      14.16481000       4.48844000
H       -0.31308000      12.52326000       5.02992000
O        0.56527000      12.48721000       5.46803000
H        1.21874000      12.55642000       4.74224000
