6
Properties=species:S:1:pos:R:3 frame=T 51=T |=T Written=T by=T MDAnalysis=T XYZWriter=T (release=T 2.4.3)=T pbc="F F F"
H       -1.80064000       2.16824000      -5.72017000
O       -1.21608000       2.64173000      -5.14182000
H       -1.73012000       2.70608000      -4.32228000
H       -3.38322000       3.41601000      -2.03225000
O       -2.73303000       3.46342000      -2.74752000
H       -2.89366000       4.30602000      -3.15352000
