6
Properties=species:S:1:pos:R:3 frame=T 48=T |=T Written=T by=T MDAnalysis=T XYZWriter=T (release=T 2.4.3)=T pbc="F F F"
H      -17.06193000     -16.17494000     -16.54834000
O      -16.42673000     -15.76952000     -15.94518000
H      -16.54691000     -16.26010000     -15.13605000
H      -15.36242000     -15.64556000     -18.06464000
O      -14.49235000     -16.06351000     -18.15932000
H      -14.59233000     -16.84375000     -17.52506000
