6
Properties=species:S:1:pos:R:3 frame=T 28=T |=T Written=T by=T MDAnalysis=T XYZWriter=T (release=T 2.4.3)=T pbc="F F F"
H       -3.52464000      -6.48933000      -6.65934000
O       -3.36184000      -6.16932000      -5.75920000
H       -3.46343000      -6.92476000      -5.19451000
H       -0.51740000      -4.97235000      -4.02082000
O       -1.40255000      -4.75866000      -4.37026000
H       -1.73815000      -5.60460000      -4.71785000
