6
Properties=species:S:1:pos:R:3 frame=T 46=T |=T Written=T by=T MDAnalysis=T XYZWriter=T (release=T 2.4.3)=T pbc="F F F"
H       -5.16645000     -13.81242000      -6.16390000
O       -4.71480000     -14.22469000      -6.89797000
H       -4.34608000     -13.50079000      -7.38954000
H       -3.63330000     -14.52151000      -5.52972000
O       -3.02982000     -14.93672000      -4.91315000
H       -2.69069000     -14.18208000      -4.38917000
