6
Properties=species:S:1:pos:R:3 frame=T 35=T |=T Written=T by=T MDAnalysis=T XYZWriter=T (release=T 2.4.3)=T pbc="F F F"
H       13.82770000      16.95909000       0.77486000
O       13.36545000      16.52961000       1.51800000
H       13.50243000      17.17927000       2.23237000
H       13.64735000      17.67333000      -1.15114000
O       14.46578000      17.81606000      -0.65249000
H       14.99212000      16.99653000      -0.74147000
