6
Properties=species:S:1:pos:R:3 frame=T 36=T |=T Written=T by=T MDAnalysis=T XYZWriter=T (release=T 2.4.3)=T pbc="F F F"
H       11.09127000       6.28611000      -7.40729000
O       11.56561000       6.95108000      -7.93773000
H       12.29814000       7.16847000      -7.33617000
H       12.51230000       8.00200000      -5.49034000
O       13.20680000       7.46949000      -5.94881000
H       13.95651000       8.07979000      -6.14361000
