6
Properties=species:S:1:pos:R:3 frame=T 15=T |=T Written=T by=T MDAnalysis=T XYZWriter=T (release=T 2.4.3)=T pbc="F F F"
H       -9.33693000      12.39048000       9.95028000
O       -9.53168000      12.19757000      10.88440000
H      -10.11376000      11.44044000      10.78177000
H       -7.24521000       9.54266000      11.00356000
O       -7.82399000       9.56152000      10.26356000
H       -8.65272000       9.79393000      10.68124000
