6
Properties=species:S:1:pos:R:3 frame=T 50=T |=T Written=T by=T MDAnalysis=T XYZWriter=T (release=T 2.4.3)=T pbc="F F F"
H       -8.03189000     -15.29622000     -18.26884000
O       -7.96784000     -14.96852000     -17.37418000
H       -7.19614000     -14.36920000     -17.44064000
H       -7.88004000     -16.36747000     -16.57573000
O       -7.89089000     -17.27552000     -16.23797000
H       -7.15346000     -17.72522000     -16.68113000
