6
Properties=species:S:1:pos:R:3 frame=T 33=T |=T Written=T by=T MDAnalysis=T XYZWriter=T (release=T 2.4.3)=T pbc="F F F"
H       -7.16448000       3.52951000     -11.94209000
O       -7.18593000       4.50801000     -11.94731000
H       -6.34823000       4.79013000     -12.29185000
H       -8.19415000       1.60321000     -11.34586000
O       -7.53090000       1.75506000     -12.01420000
H       -7.50321000       0.87796000     -12.36561000
