6
Properties=species:S:1:pos:R:3 frame=T 30=T |=T Written=T by=T MDAnalysis=T XYZWriter=T (release=T 2.4.3)=T pbc="F F F"
H       10.83775000       3.62553000      14.79617000
O       11.29205000       4.49908000      14.64893000
H       11.87298000       4.68728000      15.40011000
H       10.27422000       5.51738000      15.75601000
O        9.59247000       6.07811000      16.11594000
H        9.88294000       6.94310000      15.81419000
