6
Properties=species:S:1:pos:R:3 frame=T 6=T |=T Written=T by=T MDAnalysis=T XYZWriter=T (release=T 2.4.3)=T pbc="F F F"
H      -13.77172000       1.58512000      16.73687000
O      -13.33143000       1.30435000      17.53808000
H      -12.49763000       1.01778000      17.21909000
H      -14.69120000      -1.28826000      17.15425000
O      -13.98867000      -1.52819000      17.80086000
H      -13.64501000      -0.68406000      18.12900000
