6
Properties=species:S:1:pos:R:3 frame=T 28=T |=T Written=T by=T MDAnalysis=T XYZWriter=T (release=T 2.4.3)=T pbc="F F F"
H       -7.22303000       2.42088000      -3.83317000
O       -6.85808000       1.97633000      -3.05912000
H       -6.84546000       1.07778000      -3.34789000
H       -8.46270000      -0.66867000      -3.99618000
O       -7.90604000       0.01006000      -4.42235000
H       -7.19930000      -0.47758000      -4.87655000
