6
Properties=species:S:1:pos:R:3 frame=T 30=T |=T Written=T by=T MDAnalysis=T XYZWriter=T (release=T 2.4.3)=T pbc="F F F"
H      -12.45156000      -6.88629000     -11.43188000
O      -12.54062000      -7.13990000     -10.49661000
H      -12.46671000      -8.08305000     -10.56855000
H      -12.85209000      -8.53463000     -13.53491000
O      -12.05663000      -8.29353000     -13.01595000
H      -11.55194000      -7.73614000     -13.62161000
