6
Properties=species:S:1:pos:R:3 frame=T 10=T |=T Written=T by=T MDAnalysis=T XYZWriter=T (release=T 2.4.3)=T pbc="F F F"
H       13.16704000      -8.65320000      -9.80357000
O       13.29730000      -8.10518000     -10.55386000
H       14.24066000      -7.87666000     -10.50449000
H       12.42104000      -9.56689000     -11.18916000
O       12.10881000     -10.44366000     -11.41795000
H       12.85976000     -11.00329000     -11.14991000
