6
Properties=species:S:1:pos:R:3 frame=T 37=T |=T Written=T by=T MDAnalysis=T XYZWriter=T (release=T 2.4.3)=T pbc="F F F"
H      -11.57724000      16.90690000     -15.47239000
O      -10.64626000      16.99040000     -15.68008000
H      -10.30090000      16.08531000     -15.61559000
H      -13.39864000      16.96373000     -15.86395000
O      -13.55241000      17.67423000     -16.49169000
H      -12.89895000      17.46584000     -17.17916000
