6
Properties=species:S:1:pos:R:3 frame=T 50=T |=T Written=T by=T MDAnalysis=T XYZWriter=T (release=T 2.4.3)=T pbc="F F F"
H       17.76321000      11.95843000      -2.18049000
O       17.84200000      12.46653000      -3.02649000
H       18.77136000      12.40528000      -3.25012000
H       16.94692000      13.04642000      -0.11560000
O       17.40626000      12.22036000      -0.29913000
H       17.61028000      11.89857000       0.61042000
