6
Properties=species:S:1:pos:R:3 frame=T 18=T |=T Written=T by=T MDAnalysis=T XYZWriter=T (release=T 2.4.3)=T pbc="F F F"
H      -11.37226000       9.64564000       1.55255000
O      -11.54863000      10.20388000       2.34409000
H      -10.69022000      10.24998000       2.75482000
H      -13.48638000      10.02486000       4.01648000
O      -13.33641000       9.08965000       3.94781000
H      -12.59675000       9.07596000       3.33906000
