6
Properties=species:S:1:pos:R:3 frame=T 46=T |=T Written=T by=T MDAnalysis=T XYZWriter=T (release=T 2.4.3)=T pbc="F F F"
H       11.58269000     -17.85681000      14.51447000
O       12.39465000     -17.89513000      13.99209000
H       12.08778000     -17.96898000      13.07215000
H       10.48985000     -17.39189000      11.25682000
O       10.66087000     -18.33195000      11.42210000
H        9.89408000     -18.55736000      11.96625000
