6
Properties=species:S:1:pos:R:3 frame=T 35=T |=T Written=T by=T MDAnalysis=T XYZWriter=T (release=T 2.4.3)=T pbc="F F F"
H      -15.54607000       5.61733000      12.68150000
O      -15.89828000       5.30239000      11.85334000
H      -15.25449000       4.62554000      11.60019000
H      -16.05225000       2.93698000      10.50176000
O      -16.98775000       3.13966000      10.39690000
H      -17.09782000       4.03426000      10.75811000
