6
Properties=species:S:1:pos:R:3 frame=T 0=T |=T Written=T by=T MDAnalysis=T XYZWriter=T (release=T 2.4.3)=T pbc="F F F"
H        4.57932000      -2.01694000      12.42118000
O        5.34688000      -1.59756000      11.99119000
H        5.74317000      -1.05461000      12.67649000
H        7.25331000      -3.56367000      10.67321000
O        6.72100000      -3.17066000       9.97172000
H        6.20848000      -2.46523000      10.41527000
