6
Properties=species:S:1:pos:R:3 frame=T 27=T |=T Written=T by=T MDAnalysis=T XYZWriter=T (release=T 2.4.3)=T pbc="F F F"
H       12.80115000       5.04100000       3.29116000
O       13.74588000       4.99425000       3.43682000
H       13.77638000       5.22391000       4.37591000
H       11.17011000       6.25787000       5.18809000
O       12.04560000       5.96672000       5.42705000
H       12.34904000       6.39986000       6.22428000
