6
Properties=species:S:1:pos:R:3 frame=T 7=T |=T Written=T by=T MDAnalysis=T XYZWriter=T (release=T 2.4.3)=T pbc="F F F"
H       -4.49172000       8.37457000      12.48327000
O       -5.01175000       8.86664000      11.84749000
H       -5.53157000       9.46316000      12.41653000
H       -3.75602000       6.85652000      13.84358000
O       -3.08338000       7.56090000      13.77478000
H       -3.53949000       8.29681000      14.29431000
