6
Properties=species:S:1:pos:R:3 frame=T 47=T |=T Written=T by=T MDAnalysis=T XYZWriter=T (release=T 2.4.3)=T pbc="F F F"
H      -18.45496000       2.46475000      16.36127000
O      -17.87063000       2.43996000      15.59473000
H      -17.86396000       3.32158000      15.23638000
H      -18.01897000       5.71824000      14.95683000
O      -18.45016000       5.31802000      14.20076000
H      -17.71362000       5.10723000      13.63420000
