6
Properties=species:S:1:pos:R:3 frame=T 30=T |=T Written=T by=T MDAnalysis=T XYZWriter=T (release=T 2.4.3)=T pbc="F F F"
H        2.17239000       1.35820000       3.78930000
O        2.68544000       0.78063000       3.21423000
H        2.55719000      -0.11828000       3.57012000
H        1.73309000       1.98370000       5.58445000
O        1.32962000       2.55831000       4.90347000
H        2.02073000       3.21890000       4.75568000
