6
Properties=species:S:1:pos:R:3 frame=T 37=T |=T Written=T by=T MDAnalysis=T XYZWriter=T (release=T 2.4.3)=T pbc="F F F"
H       16.05621000      -3.92111000     -18.84550000
O       16.52229000      -3.17979000     -18.46064000
H       15.87754000      -2.86465000     -17.81043000
H       18.20774000      -5.84384000     -17.66168000
O       18.33330000      -5.89256000     -16.72439000
H       17.53454000      -6.35594000     -16.38265000
