6
Properties=species:S:1:pos:R:3 frame=T 32=T |=T Written=T by=T MDAnalysis=T XYZWriter=T (release=T 2.4.3)=T pbc="F F F"
H      -17.31553000      13.47894000      12.99870000
O      -17.90085000      14.19174000      13.27426000
H      -18.40016000      13.80429000      14.01484000
H      -17.35802000      10.02997000      12.14697000
O      -17.52516000      10.33596000      11.22762000
H      -18.05678000      11.17801000      11.42062000
