6
Properties=species:S:1:pos:R:3 frame=T 12=T |=T Written=T by=T MDAnalysis=T XYZWriter=T (release=T 2.4.3)=T pbc="F F F"
H      -18.90586000     -11.06710000      10.15033000
O      -18.85482000     -10.42075000      10.87922000
H      -18.63229000      -9.58759000      10.40596000
H      -18.47349000     -14.70311000       9.97350000
O      -17.80035000     -14.07794000       9.80475000
H      -18.21611000     -13.36596000       9.28753000
