6
Properties=species:S:1:pos:R:3 frame=T 20=T |=T Written=T by=T MDAnalysis=T XYZWriter=T (release=T 2.4.3)=T pbc="F F F"
H        3.81914000      14.70899000      14.16378000
O        4.05871000      14.00814000      14.75348000
H        3.98170000      13.19064000      14.19363000
H        3.17958000      15.13193000      11.58568000
O        3.02354000      15.59300000      10.73457000
H        2.50224000      16.36211000      11.06187000
