6
Properties=species:S:1:pos:R:3 frame=T 9=T |=T Written=T by=T MDAnalysis=T XYZWriter=T (release=T 2.4.3)=T pbc="F F F"
H       14.21796000     -15.26965000     -16.34804000
O       15.19071000     -15.12203000     -16.40880000
H       15.30824000     -15.11687000     -17.36231000
H       18.83997000     -13.60157000     -18.74500000
O       18.35167000     -14.21820000     -18.21106000
H       17.55133000     -13.72817000     -18.02720000
