6
Properties=species:S:1:pos:R:3 frame=T 32=T |=T Written=T by=T MDAnalysis=T XYZWriter=T (release=T 2.4.3)=T pbc="F F F"
H      -13.41654000      19.18461000      14.62607000
O      -14.16632000      18.65118000      14.88249000
H      -13.84394000      18.10508000      15.61270000
H      -12.28241000      18.67020000      12.36575000
O      -12.50116000      18.62372000      11.41467000
H      -12.10453000      17.74316000      11.17067000
