6
Properties=species:S:1:pos:R:3 frame=T 40=T |=T Written=T by=T MDAnalysis=T XYZWriter=T (release=T 2.4.3)=T pbc="F F F"
H       -0.39996000     -17.47354000       6.88365000
O       -0.73504000     -16.61118000       7.10123000
H       -0.09841000     -16.25051000       7.73413000
H       -1.47749000     -18.56364000       4.97001000
O       -2.17776000     -18.49241000       4.28529000
H       -2.29367000     -17.52409000       4.26688000
