6
Properties=species:S:1:pos:R:3 frame=T 42=T |=T Written=T by=T MDAnalysis=T XYZWriter=T (release=T 2.4.3)=T pbc="F F F"
H       -7.33237000      15.73673000       4.58344000
O       -8.13697000      15.92169000       4.04502000
H       -8.82510000      15.93797000       4.69743000
H       -9.87853000      16.10589000       5.90127000
O       -9.13788000      16.40702000       6.46974000
H       -8.99498000      17.31721000       6.20495000
