6
Properties=species:S:1:pos:R:3 frame=T 24=T |=T Written=T by=T MDAnalysis=T XYZWriter=T (release=T 2.4.3)=T pbc="F F F"
H       -8.87573000      17.78792000      -9.98535000
O       -8.29707000      17.13655000      -9.59241000
H       -8.56070000      16.30874000     -10.02901000
H      -10.49086000      17.81503000      -7.80189000
O      -10.71482000      16.92261000      -7.47278000
H      -11.67708000      16.92358000      -7.62819000
