6
Properties=species:S:1:pos:R:3 frame=T 46=T |=T Written=T by=T MDAnalysis=T XYZWriter=T (release=T 2.4.3)=T pbc="F F F"
H        6.19700000     -10.92562000     -12.22335000
O        7.00896000     -10.44808000     -12.04651000
H        7.65898000     -11.11432000     -11.78214000
H        6.14641000     -12.93489000     -10.96009000
O        5.54208000     -12.68095000     -11.67206000
H        5.16938000     -13.51341000     -12.02740000
