6
Properties=species:S:1:pos:R:3 frame=T 35=T |=T Written=T by=T MDAnalysis=T XYZWriter=T (release=T 2.4.3)=T pbc="F F F"
H      -12.36872000      12.55966000     -15.74753000
O      -11.64118000      12.86880000     -16.31250000
H      -10.94329000      12.26251000     -16.14650000
H      -11.37631000      14.69486000     -15.15399000
O      -10.90070000      15.50135000     -14.95845000
H      -10.24557000      15.24722000     -14.29712000
