6
Properties=species:S:1:pos:R:3 frame=T 50=T |=T Written=T by=T MDAnalysis=T XYZWriter=T (release=T 2.4.3)=T pbc="F F F"
H      -16.29240000      15.03104000      -2.13218000
O      -16.30964000      15.22445000      -3.06686000
H      -15.40159000      15.04093000      -3.32288000
H      -17.67383000      12.60830000      -5.07220000
O      -17.56074000      12.63370000      -4.10611000
H      -17.22857000      13.52408000      -3.97941000
