6
Properties=species:S:1:pos:R:3 frame=T 9=T |=T Written=T by=T MDAnalysis=T XYZWriter=T (release=T 2.4.3)=T pbc="F F F"
H       -5.89368000      -8.06385000       7.70174000
O       -5.04845000      -7.66979000       7.42059000
H       -4.87379000      -8.09396000       6.58092000
H       -7.88002000      -6.89281000       5.48386000
O       -7.10137000      -7.24493000       4.99436000
H       -6.63580000      -7.76312000       5.67040000
