6
Properties=species:S:1:pos:R:3 frame=T 16=T |=T Written=T by=T MDAnalysis=T XYZWriter=T (release=T 2.4.3)=T pbc="F F F"
H      -12.11350000      11.18598000     -14.40854000
O      -11.32435000      11.15546000     -14.99392000
H      -10.84622000      10.34999000     -14.71676000
H       -9.44681000      13.06145000     -13.63382000
O      -10.38691000      13.04777000     -13.40082000
H      -10.85658000      12.68337000     -14.17745000
