6
Properties=species:S:1:pos:R:3 frame=T 7=T |=T Written=T by=T MDAnalysis=T XYZWriter=T (release=T 2.4.3)=T pbc="F F F"
H       11.67406000      -8.59716000      -4.71471000
O       11.58009000      -7.71403000      -5.10157000
H       11.17342000      -7.16210000      -4.41769000
H        9.23491000      -7.31842000      -5.11526000
O        8.34910000      -6.92911000      -4.86227000
H        8.27633000      -6.31063000      -5.57380000
