6
Properties=species:S:1:pos:R:3 frame=T 53=T |=T Written=T by=T MDAnalysis=T XYZWriter=T (release=T 2.4.3)=T pbc="F F F"
H       -8.90420000      -8.96427000       2.57033000
O       -8.14887000      -9.34752000       2.12664000
H       -7.68208000      -9.80493000       2.81819000
H       -8.50189000     -11.67156000       1.40726000
O       -7.71808000     -12.24668000       1.46637000
H       -7.02184000     -11.67700000       1.86763000
