6
Properties=species:S:1:pos:R:3 frame=T 37=T |=T Written=T by=T MDAnalysis=T XYZWriter=T (release=T 2.4.3)=T pbc="F F F"
H      -11.00609000     -13.99770000      -0.26290000
O      -11.04340000     -13.49772000      -1.09483000
H      -11.94799000     -13.57190000      -1.36991000
H      -11.51398000     -11.18782000      -2.44169000
O      -10.54401000     -11.26917000      -2.31654000
H      -10.41574000     -12.11241000      -1.83602000
