6
Properties=species:S:1:pos:R:3 frame=T 39=T |=T Written=T by=T MDAnalysis=T XYZWriter=T (release=T 2.4.3)=T pbc="F F F"
H      -13.89877000      -0.99066000      -6.99431000
O      -14.67270000      -1.52073000      -6.90402000
H      -14.92894000      -1.63237000      -7.83725000
H      -14.50942000      -2.12776000      -3.58018000
O      -13.90423000      -2.18937000      -4.31842000
H      -14.41995000      -1.83451000      -5.05318000
