6
Properties=species:S:1:pos:R:3 frame=T 29=T |=T Written=T by=T MDAnalysis=T XYZWriter=T (release=T 2.4.3)=T pbc="F F F"
H      -14.52253000     -16.99615000       4.55268000
O      -14.23293000     -17.93781000       4.62078000
H      -14.86062000     -18.30778000       5.22906000
H      -12.95957000     -16.71731000       4.24592000
O      -12.13818000     -16.42212000       3.77951000
H      -12.09800000     -15.46109000       3.79696000
