6
Properties=species:S:1:pos:R:3 frame=T 7=T |=T Written=T by=T MDAnalysis=T XYZWriter=T (release=T 2.4.3)=T pbc="F F F"
H      -15.95062000      11.27549000      -3.68958000
O      -16.04367000      12.15005000      -3.25941000
H      -16.78326000      12.53817000      -3.74571000
H      -13.83045000      12.24639000      -2.52660000
O      -13.66689000      12.03422000      -1.60649000
H      -14.50901000      12.27654000      -1.24022000
