6
Properties=species:S:1:pos:R:3 frame=T 9=T |=T Written=T by=T MDAnalysis=T XYZWriter=T (release=T 2.4.3)=T pbc="F F F"
H      -14.93678000      -7.33015000      16.95849000
O      -15.49199000      -8.11204000      16.94178000
H      -14.95569000      -8.74799000      17.47161000
H      -14.27137000      -6.30865000      15.61408000
O      -13.72232000      -6.23204000      16.40475000
H      -12.86839000      -6.46355000      16.03626000
