6
Properties=species:S:1:pos:R:3 frame=T 15=T |=T Written=T by=T MDAnalysis=T XYZWriter=T (release=T 2.4.3)=T pbc="F F F"
H        4.50532000      -3.83256000       2.40979000
O        3.89243000      -3.13982000       2.58254000
H        3.02179000      -3.53076000       2.48355000
H        1.44366000      -2.81229000      -0.14566000
O        1.88192000      -3.64353000       0.10853000
H        1.68906000      -3.70468000       1.05480000
