6
Properties=species:S:1:pos:R:3 frame=T 6=T |=T Written=T by=T MDAnalysis=T XYZWriter=T (release=T 2.4.3)=T pbc="F F F"
H       17.15769000     -15.38162000      -4.46381000
O       17.55986000     -14.65258000      -4.90539000
H       18.12607000     -15.03350000      -5.60185000
H       16.21830000     -13.06241000      -5.14742000
O       16.42008000     -12.11372000      -5.20285000
H       16.74244000     -11.92556000      -4.31599000
