6
Properties=species:S:1:pos:R:3 frame=T 11=T |=T Written=T by=T MDAnalysis=T XYZWriter=T (release=T 2.4.3)=T pbc="F F F"
H       13.17725000      10.34339000       3.14513000
O       13.84678000       9.67644000       3.00217000
H       13.51558000       9.12092000       2.29187000
H       11.92428000       8.96909000       1.26273000
O       12.16996000       8.05880000       1.35708000
H       12.55956000       7.79881000       0.50600000
