6
Properties=species:S:1:pos:R:3 frame=T 16=T |=T Written=T by=T MDAnalysis=T XYZWriter=T (release=T 2.4.3)=T pbc="F F F"
H        9.16846000      -7.94290000      -3.63462000
O        9.37585000      -7.97781000      -4.55275000
H       10.05333000      -7.32541000      -4.66177000
H        9.25825000      -9.96287000      -1.46132000
O        8.68597000      -9.21247000      -1.69712000
H        9.22879000      -8.43915000      -1.74258000
