6
Properties=species:S:1:pos:R:3 frame=T 50=T |=T Written=T by=T MDAnalysis=T XYZWriter=T (release=T 2.4.3)=T pbc="F F F"
H        2.43267000      -2.98627000      15.74541000
O        2.40813000      -3.77287000      15.17492000
H        1.89717000      -4.41489000      15.68185000
H        3.39669000      -1.29608000      15.00299000
O        3.13234000      -1.53947000      15.92083000
H        2.34368000      -0.97708000      16.02754000
