6
Properties=species:S:1:pos:R:3 frame=T 23=T |=T Written=T by=T MDAnalysis=T XYZWriter=T (release=T 2.4.3)=T pbc="F F F"
H       -1.64005000       5.23824000      15.70782000
O       -0.72694000       4.92579000      15.86261000
H       -0.37745000       5.63327000      16.40686000
H        0.04798000       4.12748000      14.25071000
O        0.89784000       4.23567000      13.84669000
H        1.17394000       5.13334000      14.00475000
