6
Properties=species:S:1:pos:R:3 frame=T 51=T |=T Written=T by=T MDAnalysis=T XYZWriter=T (release=T 2.4.3)=T pbc="F F F"
H        4.36590000     -10.58664000     -10.00281000
O        3.77455000     -10.55987000     -10.73780000
H        3.26240000     -11.36369000     -10.65602000
H        1.48697000     -12.51220000     -11.03898000
O        2.28664000     -13.01393000     -11.00456000
H        2.00750000     -13.82035000     -11.46322000
