6
Properties=species:S:1:pos:R:3 frame=T 40=T |=T Written=T by=T MDAnalysis=T XYZWriter=T (release=T 2.4.3)=T pbc="F F F"
H       -5.41132000      -9.93252000       5.04455000
O       -5.27980000      -8.99996000       4.77143000
H       -4.77254000      -9.09231000       3.93821000
H       -4.63400000      -7.81336000       6.23306000
O       -4.37220000      -7.89503000       7.14947000
H       -3.97136000      -8.78073000       7.22374000
