6
Properties=species:S:1:pos:R:3 frame=T 51=T |=T Written=T by=T MDAnalysis=T XYZWriter=T (release=T 2.4.3)=T pbc="F F F"
H       -7.35503000      11.67760000       6.36303000
O       -7.10372000      11.31449000       7.24445000
H       -7.26241000      12.07026000       7.80293000
H       -5.33654000      11.92069000       7.56154000
O       -4.38173000      11.98719000       7.38685000
H       -4.28996000      11.78317000       6.41548000
