6
Properties=species:S:1:pos:R:3 frame=T 33=T |=T Written=T by=T MDAnalysis=T XYZWriter=T (release=T 2.4.3)=T pbc="F F F"
H      -13.44817000       0.81838000      17.39199000
O      -14.07051000       1.35705000      17.89291000
H      -14.09770000       2.16341000      17.39485000
H      -13.99878000       3.54613000      15.39918000
O      -13.59623000       3.77049000      16.27308000
H      -13.35622000       4.71057000      16.13641000
