6
Properties=species:S:1:pos:R:3 frame=T 6=T |=T Written=T by=T MDAnalysis=T XYZWriter=T (release=T 2.4.3)=T pbc="F F F"
H      -10.92391000      16.10933000      10.33895000
O      -11.08566000      15.25171000      10.81297000
H      -10.87381000      14.63209000      10.10552000
H      -13.57913000      13.68812000      10.21240000
O      -13.58311000      14.39279000      10.88518000
H      -12.72514000      14.85620000      10.79987000
