6
Properties=species:S:1:pos:R:3 frame=T 4=T |=T Written=T by=T MDAnalysis=T XYZWriter=T (release=T 2.4.3)=T pbc="F F F"
H       14.83507000      15.61659000       3.53360000
O       14.53827000      16.34725000       2.94354000
H       14.60774000      17.07402000       3.59001000
H       15.62289000      16.51830000       1.27371000
O       16.08848000      16.53315000       0.44372000
H       15.52705000      17.10223000      -0.08647000
