6
Properties=species:S:1:pos:R:3 frame=T 13=T |=T Written=T by=T MDAnalysis=T XYZWriter=T (release=T 2.4.3)=T pbc="F F F"
H       10.09364000      10.66324000       8.07878000
O       10.95363000      11.08573000       8.06898000
H       10.84779000      11.74497000       8.78717000
H        7.79457000      10.55392000       8.15812000
O        8.46713000      10.09475000       7.62577000
H        8.63572000      10.69151000       6.88384000
