6
Properties=species:S:1:pos:R:3 frame=T 9=T |=T Written=T by=T MDAnalysis=T XYZWriter=T (release=T 2.4.3)=T pbc="F F F"
H      -18.51627000       7.84680000       3.64738000
O      -17.78884000       7.39813000       3.24127000
H      -18.21357000       6.70185000       2.73162000
H      -17.38773000       4.83639000       5.27544000
O      -18.22529000       5.22840000       4.95666000
H      -17.95758000       6.01645000       4.43176000
