6
Properties=species:S:1:pos:R:3 frame=T 44=T |=T Written=T by=T MDAnalysis=T XYZWriter=T (release=T 2.4.3)=T pbc="F F F"
H        5.83925000      15.01491000      -5.76402000
O        6.28063000      15.57125000      -5.06926000
H        5.96774000      15.15320000      -4.23513000
H        4.46114000      13.81406000      -6.93104000
O        5.20907000      13.83866000      -7.55534000
H        5.58088000      12.94142000      -7.52850000
