6
Properties=species:S:1:pos:R:3 frame=T 43=T |=T Written=T by=T MDAnalysis=T XYZWriter=T (release=T 2.4.3)=T pbc="F F F"
H      -18.76730000      16.93844000      15.76891000
O      -18.25520000      16.13894000      15.61030000
H      -17.60331000      16.48103000      14.99681000
H      -15.28023000      16.10970000      13.36049000
O      -15.91293000      16.30707000      14.05361000
H      -15.41278000      16.93899000      14.61114000
