6
Properties=species:S:1:pos:R:3 frame=T 37=T |=T Written=T by=T MDAnalysis=T XYZWriter=T (release=T 2.4.3)=T pbc="F F F"
H       -0.63815000       9.12720000       2.71313000
O       -0.44007000       9.35198000       3.61692000
H       -0.38984000       8.49488000       4.06253000
H       -1.52256000      10.85427000       4.57477000
O       -1.99733000      11.70193000       4.60220000
H       -2.28340000      11.82369000       3.69053000
