6
Properties=species:S:1:pos:R:3 frame=T 2=T |=T Written=T by=T MDAnalysis=T XYZWriter=T (release=T 2.4.3)=T pbc="F F F"
H       -1.47806000      14.18223000      -5.52153000
O       -1.53821000      14.64542000      -4.66217000
H       -1.66433000      15.54489000      -4.96853000
H       -3.63329000      16.42815000      -6.52134000
O       -2.77640000      16.72415000      -6.25993000
H       -2.65623000      17.55687000      -6.74533000
