6
Properties=species:S:1:pos:R:3 frame=T 45=T |=T Written=T by=T MDAnalysis=T XYZWriter=T (release=T 2.4.3)=T pbc="F F F"
H       -6.14681000      13.75914000      -0.10718000
O       -5.22681000      13.73646000       0.07741000
H       -4.98039000      12.80119000       0.03146000
H       -3.66418000      14.04539000      -0.40043000
O       -2.72793000      14.20372000      -0.55779000
H       -2.39332000      13.31007000      -0.55576000
