6
Properties=species:S:1:pos:R:3 frame=T 43=T |=T Written=T by=T MDAnalysis=T XYZWriter=T (release=T 2.4.3)=T pbc="F F F"
H       12.90045000      -8.65339000       4.78223000
O       12.42788000      -7.89826000       4.39056000
H       12.11447000      -7.43462000       5.19782000
H       10.87913000      -6.22106000       6.73079000
O       11.35765000      -7.04561000       6.90684000
H       10.82056000      -7.73082000       6.48234000
