6
Properties=species:S:1:pos:R:3 frame=T 8=T |=T Written=T by=T MDAnalysis=T XYZWriter=T (release=T 2.4.3)=T pbc="F F F"
H        1.43331000      -4.90741000       0.23015000
O        2.03118000      -5.09024000       0.97117000
H        1.95733000      -4.34227000       1.55542000
H       -0.12304000      -3.18291000      -0.04343000
O        0.49088000      -3.49901000      -0.71846000
H        0.84845000      -2.69856000      -1.10913000
