6
Properties=species:S:1:pos:R:3 frame=T 40=T |=T Written=T by=T MDAnalysis=T XYZWriter=T (release=T 2.4.3)=T pbc="F F F"
H       -0.00529000      -4.07105000      -2.10417000
O       -0.67167000      -3.79793000      -1.43763000
H       -1.04029000      -4.65158000      -1.14288000
H       -1.01197000      -4.20813000      -3.82933000
O       -1.49980000      -3.84975000      -4.55868000
H       -0.82567000      -3.84825000      -5.27646000
