6
Properties=species:S:1:pos:R:3 frame=T 44=T |=T Written=T by=T MDAnalysis=T XYZWriter=T (release=T 2.4.3)=T pbc="F F F"
H       17.74405000      -9.05438000      11.38015000
O       16.86681000      -9.35534000      11.13676000
H       16.29440000      -8.85548000      11.74880000
H       17.44285000      -7.36858000      10.92220000
O       18.31554000      -7.02951000      10.86148000
H       18.65308000      -7.44401000      10.08172000
