6
Properties=species:S:1:pos:R:3 frame=T 9=T |=T Written=T by=T MDAnalysis=T XYZWriter=T (release=T 2.4.3)=T pbc="F F F"
H       12.96322000       4.10149000     -16.88207000
O       12.27741000       4.47673000     -17.47240000
H       11.74633000       3.68567000     -17.62093000
H       11.20692000       1.39897000     -18.95353000
O       11.20933000       1.31241000     -18.00109000
H       11.44317000       0.39859000     -17.91342000
