6
Properties=species:S:1:pos:R:3 frame=T 17=T |=T Written=T by=T MDAnalysis=T XYZWriter=T (release=T 2.4.3)=T pbc="F F F"
H       13.38884000      -2.31065000      16.43114000
O       14.30177000      -2.07755000      16.68568000
H       14.80561000      -2.84883000      16.41790000
H       16.03203000      -3.53385000      15.51485000
O       15.57474000      -4.26683000      15.88543000
H       14.85536000      -4.31231000      15.27736000
