6
Properties=species:S:1:pos:R:3 frame=T 12=T |=T Written=T by=T MDAnalysis=T XYZWriter=T (release=T 2.4.3)=T pbc="F F F"
H       14.80404000      12.68081000     -13.04645000
O       15.56521000      13.27272000     -12.93426000
H       15.81660000      13.17533000     -11.98830000
H       13.77278000      11.49256000     -12.18459000
O       13.23635000      11.97375000     -12.81073000
H       13.10827000      12.80855000     -12.38796000
