6
Properties=species:S:1:pos:R:3 frame=T 48=T |=T Written=T by=T MDAnalysis=T XYZWriter=T (release=T 2.4.3)=T pbc="F F F"
H        7.67718000      -8.98908000      15.01188000
O        7.84854000      -9.61444000      14.30837000
H        8.51049000      -9.19699000      13.70815000
H        5.23262000      -8.56792000      12.72341000
O        5.81777000      -8.22795000      13.41022000
H        6.34258000      -8.99128000      13.68465000
