6
Properties=species:S:1:pos:R:3 frame=T 2=T |=T Written=T by=T MDAnalysis=T XYZWriter=T (release=T 2.4.3)=T pbc="F F F"
H        1.05842000     -10.75065000       0.61545000
O        0.31226000     -11.31312000       0.45792000
H       -0.29898000     -10.66649000       0.12976000
H        0.63276000     -13.60173000      -1.03481000
O       -0.22749000     -13.92702000      -0.72565000
H       -0.65495000     -13.09217000      -0.50533000
