6
Properties=species:S:1:pos:R:3 frame=T 31=T |=T Written=T by=T MDAnalysis=T XYZWriter=T (release=T 2.4.3)=T pbc="F F F"
H      -12.76778000      12.56593000      13.33204000
O      -12.46085000      12.17119000      14.16101000
H      -11.56374000      11.89267000      13.93369000
H      -11.20919000      14.47822000      15.91231000
O      -11.04138000      14.33172000      14.96517000
H      -11.64833000      13.62194000      14.73207000
