6
Properties=species:S:1:pos:R:3 frame=T 12=T |=T Written=T by=T MDAnalysis=T XYZWriter=T (release=T 2.4.3)=T pbc="F F F"
H       11.05584000      -7.43197000       7.10962000
O       11.38931000      -6.87577000       6.37922000
H       12.33890000      -6.94137000       6.39894000
H       12.63337000      -8.37518000       3.73370000
O       11.78726000      -8.11101000       4.11548000
H       12.00855000      -7.77091000       5.01008000
