6
Properties=species:S:1:pos:R:3 frame=T 0=T |=T Written=T by=T MDAnalysis=T XYZWriter=T (release=T 2.4.3)=T pbc="F F F"
H        1.48059000       7.77963000      13.40190000
O        2.12925000       7.97134000      14.07378000
H        2.57531000       8.77857000      13.74810000
H       -0.45026000       6.18101000      13.40963000
O       -0.13953000       7.02033000      13.04972000
H       -0.97516000       7.40305000      12.65920000
