6
Properties=species:S:1:pos:R:3 frame=T 13=T |=T Written=T by=T MDAnalysis=T XYZWriter=T (release=T 2.4.3)=T pbc="F F F"
H       19.17451000      -0.22233000       0.17662000
O       18.37104000       0.33634000       0.13929000
H       17.68171000      -0.21478000       0.50504000
H       16.68494000      -2.03561000       1.62847000
O       16.45963000      -1.10466000       1.48572000
H       17.00517000      -0.66561000       2.15721000
