6
Properties=species:S:1:pos:R:3 frame=T 14=T |=T Written=T by=T MDAnalysis=T XYZWriter=T (release=T 2.4.3)=T pbc="F F F"
H      -17.39037000      -6.66497000      -3.28784000
O      -18.02378000      -6.17382000      -3.84635000
H      -17.61117000      -5.28802000      -3.91460000
H      -16.07232000      -7.33856000      -5.93211000
O      -16.95154000      -7.25721000      -6.30470000
H      -17.44725000      -6.94438000      -5.52686000
