6
Properties=species:S:1:pos:R:3 frame=T 19=T |=T Written=T by=T MDAnalysis=T XYZWriter=T (release=T 2.4.3)=T pbc="F F F"
H        7.53737000      19.03977000       0.28375000
O        7.15108000      18.54939000       1.00822000
H        6.80238000      17.79898000       0.56294000
H        6.12533000      15.63519000       0.54541000
O        6.33551000      16.10808000      -0.27611000
H        5.68695000      16.81185000      -0.39983000
