6
Properties=species:S:1:pos:R:3 frame=T 30=T |=T Written=T by=T MDAnalysis=T XYZWriter=T (release=T 2.4.3)=T pbc="F F F"
H      -15.90654000      13.73112000       3.94508000
O      -16.22971000      13.36394000       3.11789000
H      -16.15608000      14.09133000       2.51885000
H      -15.62962000      10.30918000       3.22773000
O      -16.27785000      10.57132000       2.58648000
H      -16.03108000      11.49648000       2.36373000
