6
Properties=species:S:1:pos:R:3 frame=T 30=T |=T Written=T by=T MDAnalysis=T XYZWriter=T (release=T 2.4.3)=T pbc="F F F"
H        3.01362000       2.59953000      -2.33882000
O        3.96278000       2.56496000      -2.12973000
H        4.25622000       1.91302000      -2.77328000
H        1.48876000       3.15229000      -3.90385000
O        1.46116000       2.82644000      -2.98350000
H        1.17865000       1.92548000      -3.11893000
