6
Properties=species:S:1:pos:R:3 frame=T 12=T |=T Written=T by=T MDAnalysis=T XYZWriter=T (release=T 2.4.3)=T pbc="F F F"
H       -6.78285000       9.01424000      14.67081000
O       -7.61493000       8.76414000      14.20502000
H       -7.73964000       7.85671000      14.52711000
H       -9.00997000       6.29437000      15.33049000
O       -8.09244000       6.21857000      14.99242000
H       -8.24580000       6.17501000      14.02987000
