6
Properties=species:S:1:pos:R:3 frame=T 47=T |=T Written=T by=T MDAnalysis=T XYZWriter=T (release=T 2.4.3)=T pbc="F F F"
H       -8.11640000       0.31803000      -2.73617000
O       -8.83353000       0.21398000      -2.12203000
H       -9.47584000       0.92927000      -2.27706000
H      -11.63779000       0.49730000      -4.51579000
O      -11.11473000      -0.28088000      -4.31191000
H      -10.99136000      -0.19711000      -3.34615000
