6
Properties=species:S:1:pos:R:3 frame=T 16=T |=T Written=T by=T MDAnalysis=T XYZWriter=T (release=T 2.4.3)=T pbc="F F F"
H        1.91676000     -17.88641000      -6.78519000
O        1.44601000     -17.17084000      -6.37727000
H        0.53914000     -17.24400000      -6.67465000
H       -0.38499000     -18.10430000      -4.26016000
O        0.24256000     -17.52073000      -3.78220000
H        0.97714000     -17.40882000      -4.40780000
