6
Properties=species:S:1:pos:R:3 frame=T 33=T |=T Written=T by=T MDAnalysis=T XYZWriter=T (release=T 2.4.3)=T pbc="F F F"
H       -5.84490000      13.15769000      -5.23793000
O       -5.47786000      12.37906000      -4.78122000
H       -5.88450000      12.38287000      -3.92643000
H       -5.63814000      14.95167000      -5.83303000
O       -6.28461000      14.47092000      -6.35161000
H       -5.76737000      14.07739000      -7.06545000
