6
Properties=species:S:1:pos:R:3 frame=T 46=T |=T Written=T by=T MDAnalysis=T XYZWriter=T (release=T 2.4.3)=T pbc="F F F"
H       -3.69527000      13.10803000     -10.04048000
O       -3.52074000      13.96265000      -9.58431000
H       -4.42577000      14.32609000      -9.46141000
H       -2.26351000      15.34267000     -10.55724000
O       -1.34742000      15.51441000     -10.73510000
H       -0.88594000      14.67035000     -10.63126000
