6
Properties=species:S:1:pos:R:3 frame=T 21=T |=T Written=T by=T MDAnalysis=T XYZWriter=T (release=T 2.4.3)=T pbc="F F F"
H       17.33397000     -11.97706000      13.09317000
O       16.60517000     -12.58728000      13.05888000
H       16.24393000     -12.45833000      13.95286000
H       13.99863000     -10.95345000      12.45116000
O       14.66304000     -11.29538000      11.86667000
H       15.31883000     -11.67423000      12.41620000
