6
Properties=species:S:1:pos:R:3 frame=T 23=T |=T Written=T by=T MDAnalysis=T XYZWriter=T (release=T 2.4.3)=T pbc="F F F"
H       15.25761000       1.60003000     -18.33968000
O       14.50206000       2.08510000     -18.62054000
H       14.00358000       1.42653000     -19.08441000
H       17.50514000       1.30110000     -17.08007000
O       17.21101000       1.99739000     -17.67289000
H       17.07279000       2.76984000     -17.11326000
