6
Properties=species:S:1:pos:R:3 frame=T 15=T |=T Written=T by=T MDAnalysis=T XYZWriter=T (release=T 2.4.3)=T pbc="F F F"
H       16.40843000      -1.86660000     -16.68928000
O       17.27321000      -2.16408000     -16.43014000
H       17.32769000      -1.83017000     -15.53063000
H       16.42874000       0.12808000     -17.34851000
O       17.03699000       0.80221000     -17.67961000
H       17.32770000       0.46136000     -18.52778000
