6
Properties=species:S:1:pos:R:3 frame=T 14=T |=T Written=T by=T MDAnalysis=T XYZWriter=T (release=T 2.4.3)=T pbc="F F F"
H        2.84239000       4.17557000      -2.63988000
O        2.33847000       3.55899000      -3.21860000
H        2.21022000       2.77868000      -2.68969000
H        0.85484000       5.01398000      -3.39123000
O        0.62984000       5.90276000      -3.72828000
H       -0.31101000       5.98924000      -3.60535000
