6
Properties=species:S:1:pos:R:3 frame=T 52=T |=T Written=T by=T MDAnalysis=T XYZWriter=T (release=T 2.4.3)=T pbc="F F F"
H        2.46314000     -17.58418000      12.55338000
O        3.04032000     -18.34410000      12.71001000
H        3.53945000     -18.00450000      13.48852000
H        5.78699000     -17.83807000      14.38824000
O        5.90515000     -18.55144000      13.74127000
H        5.54180000     -19.29871000      14.19275000
