6
Properties=species:S:1:pos:R:3 frame=T 40=T |=T Written=T by=T MDAnalysis=T XYZWriter=T (release=T 2.4.3)=T pbc="F F F"
H        8.85049000       4.54552000      -4.26202000
O        8.69461000       3.64586000      -3.98256000
H        8.02728000       3.32985000      -4.61022000
H        9.52474000       7.30305000      -4.44277000
O        9.27841000       6.45231000      -4.05688000
H        9.86926000       6.25612000      -3.32155000
