6
Properties=species:S:1:pos:R:3 frame=T 25=T |=T Written=T by=T MDAnalysis=T XYZWriter=T (release=T 2.4.3)=T pbc="F F F"
H      -18.19412000     -16.87999000       2.87683000
O      -17.80209000     -16.84489000       3.79050000
H      -18.36749000     -17.45405000       4.27404000
H      -18.67789000     -16.36620000       5.61941000
O      -18.79582000     -17.14165000       6.21188000
H      -18.08129000     -17.06453000       6.84209000
