6
Properties=species:S:1:pos:R:3 frame=T 37=T |=T Written=T by=T MDAnalysis=T XYZWriter=T (release=T 2.4.3)=T pbc="F F F"
H        4.05466000     -12.16344000      14.63611000
O        4.92875000     -11.72682000      14.52831000
H        5.03000000     -11.22937000      15.33582000
H        3.89409000     -10.59291000      12.08400000
O        3.79139000      -9.97185000      12.82642000
H        4.40466000     -10.33060000      13.47878000
