6
Properties=species:S:1:pos:R:3 frame=T 22=T |=T Written=T by=T MDAnalysis=T XYZWriter=T (release=T 2.4.3)=T pbc="F F F"
H       11.23942000      -9.14154000      14.12710000
O       11.51376000      -9.22159000      13.21800000
H       10.80829000      -8.68668000      12.81986000
H        9.63068000      -7.42992000      12.34412000
O        9.36214000      -8.12811000      11.71814000
H        8.53678000      -8.45572000      12.08261000
