6
Properties=species:S:1:pos:R:3 frame=T 12=T |=T Written=T by=T MDAnalysis=T XYZWriter=T (release=T 2.4.3)=T pbc="F F F"
H        6.09272000      11.98934000     -15.99836000
O        6.50860000      12.75992000     -16.44310000
H        7.30054000      12.42517000     -16.84293000
H        6.05127000      14.33911000     -15.35033000
O        5.65931000      15.08824000     -14.86592000
H        4.90097000      15.39249000     -15.40758000
