6
Properties=species:S:1:pos:R:3 frame=T 32=T |=T Written=T by=T MDAnalysis=T XYZWriter=T (release=T 2.4.3)=T pbc="F F F"
H        0.49141000     -13.59530000      -7.36396000
O       -0.36293000     -13.39435000      -6.98938000
H       -0.08648000     -12.90062000      -6.20627000
H        0.06772000     -12.43415000      -4.22936000
O       -0.45617000     -11.80016000      -4.75343000
H        0.15857000     -11.23772000      -5.21358000
