6
Properties=species:S:1:pos:R:3 frame=T 35=T |=T Written=T by=T MDAnalysis=T XYZWriter=T (release=T 2.4.3)=T pbc="F F F"
H       -5.99505000     -12.81550000      16.14768000
O       -6.78671000     -12.31035000      15.88400000
H       -7.30918000     -12.93139000      15.33516000
H       -8.86603000     -12.00327000      12.88466000
O       -8.22366000     -11.86488000      13.57281000
H       -7.36279000     -12.13383000      13.18153000
