6
Properties=species:S:1:pos:R:3 frame=T 4=T |=T Written=T by=T MDAnalysis=T XYZWriter=T (release=T 2.4.3)=T pbc="F F F"
H        9.85231000      -7.19268000      -2.56779000
O        9.10894000      -7.51462000      -2.06161000
H        9.44380000      -8.25490000      -1.55246000
H       10.72755000      -5.74041000      -4.40774000
O       10.87957000      -6.39641000      -3.73337000
H       10.83187000      -5.88614000      -2.93668000
