6
Properties=species:S:1:pos:R:3 frame=T 18=T |=T Written=T by=T MDAnalysis=T XYZWriter=T (release=T 2.4.3)=T pbc="F F F"
H       -9.72339000       2.99317000      10.10700000
O       -8.85636000       2.60899000       9.98272000
H       -8.29034000       3.05805000      10.58220000
H       -8.44619000       1.18800000       7.47588000
O       -8.54209000       0.42612000       8.06471000
H       -8.82847000       0.89083000       8.87245000
