6
Properties=species:S:1:pos:R:3 frame=T 41=T |=T Written=T by=T MDAnalysis=T XYZWriter=T (release=T 2.4.3)=T pbc="F F F"
H      -11.48399000      -3.65121000      -9.54646000
O      -11.32680000      -3.35773000      -8.64938000
H      -10.40785000      -3.64305000      -8.52592000
H      -11.64795000      -4.83031000     -10.96587000
O      -12.49061000      -4.36117000     -11.00187000
H      -12.32460000      -3.55572000     -11.54693000
