6
Properties=species:S:1:pos:R:3 frame=T 47=T |=T Written=T by=T MDAnalysis=T XYZWriter=T (release=T 2.4.3)=T pbc="F F F"
H      -14.75406000      18.02822000      -1.59638000
O      -15.23276000      17.66682000      -2.36962000
H      -16.00286000      18.18694000      -2.40870000
H      -16.39920000      16.28515000      -1.05829000
O      -16.65479000      16.08136000      -0.16292000
H      -17.32277000      16.73292000       0.04791000
