6
Properties=species:S:1:pos:R:3 frame=T 54=T |=T Written=T by=T MDAnalysis=T XYZWriter=T (release=T 2.4.3)=T pbc="F F F"
H        5.22499000      17.10585000     -14.95702000
O        4.60224000      17.46518000     -14.33759000
H        5.12937000      17.37827000     -13.51007000
H        6.77059000      17.06286000     -17.24869000
O        6.36292000      17.02682000     -16.34552000
H        5.79911000      17.81760000     -16.35921000
