6
Properties=species:S:1:pos:R:3 frame=T 34=T |=T Written=T by=T MDAnalysis=T XYZWriter=T (release=T 2.4.3)=T pbc="F F F"
H        1.10167000       5.12836000      12.11088000
O        0.91838000       6.04944000      12.10867000
H        0.43528000       6.27556000      12.91713000
H        3.86904000       5.89718000      11.94745000
O        3.77818000       6.29615000      12.83367000
H        2.97085000       6.79790000      12.71365000
