6
Properties=species:S:1:pos:R:3 frame=T 32=T |=T Written=T by=T MDAnalysis=T XYZWriter=T (release=T 2.4.3)=T pbc="F F F"
H        2.48415000      10.28280000       7.02972000
O        2.49488000       9.32968000       7.05831000
H        2.31267000       9.18653000       8.00561000
H        4.09098000       6.96215000       5.78028000
O        4.58038000       7.34653000       6.50930000
H        4.18509000       8.22340000       6.58771000
