6
Properties=species:S:1:pos:R:3 frame=T 16=T |=T Written=T by=T MDAnalysis=T XYZWriter=T (release=T 2.4.3)=T pbc="F F F"
H       10.47829000     -18.27466000      16.65079000
O        9.67438000     -17.97238000      16.19508000
H        9.82709000     -18.14984000      15.23628000
H       11.48450000     -18.55811000      18.70063000
O       11.19998000     -17.78637000      19.18214000
H       10.33942000     -17.50471000      18.83623000
