6
Properties=species:S:1:pos:R:3 frame=T 13=T |=T Written=T by=T MDAnalysis=T XYZWriter=T (release=T 2.4.3)=T pbc="F F F"
H       -7.27103000     -17.77132000       6.09359000
O       -6.73434000     -16.98888000       6.36890000
H       -6.73597000     -16.44158000       5.56906000
H       -4.07791000     -17.60410000       5.41287000
O       -3.98345000     -17.22838000       6.27504000
H       -4.89978000     -17.15746000       6.53549000
