6
Properties=species:S:1:pos:R:3 frame=T 22=T |=T Written=T by=T MDAnalysis=T XYZWriter=T (release=T 2.4.3)=T pbc="F F F"
H      -12.62605000       6.41622000      -2.40680000
O      -11.96859000       6.09679000      -1.78458000
H      -12.03082000       6.77192000      -1.07326000
H      -10.39204000       6.52422000       0.80942000
O      -11.10492000       6.77803000       1.42392000
H      -11.90399000       6.69795000       0.91011000
