6
Properties=species:S:1:pos:R:3 frame=T 9=T |=T Written=T by=T MDAnalysis=T XYZWriter=T (release=T 2.4.3)=T pbc="F F F"
H        7.69534000      -9.55579000     -10.92116000
O        6.76916000      -9.54189000     -11.19972000
H        6.44047000     -10.34991000     -10.78650000
H        6.52353000      -8.11212000     -12.53334000
O        6.36171000      -7.18098000     -12.67072000
H        5.41589000      -7.07159000     -12.52692000
