6
Properties=species:S:1:pos:R:3 frame=T 7=T |=T Written=T by=T MDAnalysis=T XYZWriter=T (release=T 2.4.3)=T pbc="F F F"
H       17.40809000      -4.27981000       5.34558000
O       16.60334000      -3.87267000       5.65683000
H       15.95238000      -4.32618000       5.18169000
H       17.73601000      -2.48673000       6.64997000
O       18.11767000      -1.69574000       6.98548000
H       19.00984000      -1.66219000       6.60734000
