6
Properties=species:S:1:pos:R:3 frame=T 22=T |=T Written=T by=T MDAnalysis=T XYZWriter=T (release=T 2.4.3)=T pbc="F F F"
H      -18.51419000     -13.55569000     -12.20812000
O      -18.38665000     -14.02279000     -13.04675000
H      -17.90419000     -13.36461000     -13.55971000
H      -18.06790000     -13.65927000     -15.92849000
O      -17.82270000     -14.54324000     -16.22489000
H      -17.06266000     -14.40790000     -16.83406000
