6
Properties=species:S:1:pos:R:3 frame=T 19=T |=T Written=T by=T MDAnalysis=T XYZWriter=T (release=T 2.4.3)=T pbc="F F F"
H        3.50438000       6.76926000      -9.10836000
O        2.73105000       6.76315000      -8.53832000
H        2.03498000       7.15573000      -9.07632000
H        1.70123000       5.62911000      -9.36407000
O        1.37135000       4.92109000      -9.89313000
H        1.90537000       5.01709000     -10.68976000
