6
Properties=species:S:1:pos:R:3 frame=T 46=T |=T Written=T by=T MDAnalysis=T XYZWriter=T (release=T 2.4.3)=T pbc="F F F"
H      -16.06969000      -6.61068000       7.05611000
O      -15.91326000      -6.10302000       6.25347000
H      -16.25735000      -5.18283000       6.42174000
H      -18.42740000      -6.38585000       6.05669000
O      -18.18719000      -6.71901000       5.15517000
H      -17.22850000      -6.62618000       5.09926000
