6
Properties=species:S:1:pos:R:3 frame=T 4=T |=T Written=T by=T MDAnalysis=T XYZWriter=T (release=T 2.4.3)=T pbc="F F F"
H        4.60455000      13.72871000       3.28039000
O        5.40834000      13.76240000       2.77512000
H        6.10385000      13.85130000       3.43722000
H        3.45803000      13.18889000       4.62383000
O        2.89786000      13.53133000       3.91889000
H        2.64261000      12.76336000       3.39612000
