6
Properties=species:S:1:pos:R:3 frame=T 2=T |=T Written=T by=T MDAnalysis=T XYZWriter=T (release=T 2.4.3)=T pbc="F F F"
H      -16.09720000      12.35256000      14.44856000
O      -16.53720000      12.31366000      13.60120000
H      -15.86377000      12.65185000      13.03083000
H      -13.85808000      12.71248000      12.88225000
O      -14.37619000      13.49696000      12.71597000
H      -13.98497000      13.82632000      11.91070000
