6
Properties=species:S:1:pos:R:3 frame=T 31=T |=T Written=T by=T MDAnalysis=T XYZWriter=T (release=T 2.4.3)=T pbc="F F F"
H       10.27096000     -11.31863000      17.39672000
O       10.96128000     -10.96711000      17.96534000
H       11.73414000     -11.26382000      17.48755000
H       14.10853000     -11.04401000      19.06579000
O       13.90322000     -10.56626000      18.25880000
H       13.32121000     -11.17024000      17.79365000
