6
Properties=species:S:1:pos:R:3 frame=T 5=T |=T Written=T by=T MDAnalysis=T XYZWriter=T (release=T 2.4.3)=T pbc="F F F"
H      -11.15930000     -13.91868000     -16.03608000
O      -10.80729000     -13.18133000     -15.53499000
H      -10.71528000     -12.48728000     -16.21094000
H       -8.13563000     -12.25789000     -16.05568000
O       -8.09607000     -11.43411000     -15.54541000
H       -8.89875000     -11.45622000     -14.99448000
