6
Properties=species:S:1:pos:R:3 frame=T 50=T |=T Written=T by=T MDAnalysis=T XYZWriter=T (release=T 2.4.3)=T pbc="F F F"
H       11.27458000      -5.51310000     -11.94160000
O       11.62111000      -6.41373000     -11.96613000
H       12.52973000      -6.23827000     -11.75875000
H       14.03767000      -4.97425000     -14.03540000
O       14.40643000      -5.64920000     -13.42621000
H       13.78046000      -6.36223000     -13.53380000
