6
Properties=species:S:1:pos:R:3 frame=T 41=T |=T Written=T by=T MDAnalysis=T XYZWriter=T (release=T 2.4.3)=T pbc="F F F"
H       16.43793000     -11.91454000       6.82139000
O       16.55651000     -11.37625000       5.99196000
H       17.02536000     -12.01452000       5.44990000
H       14.45097000     -12.08347000       6.57866000
O       13.52183000     -12.37539000       6.50884000
H       13.42039000     -13.00797000       7.24532000
