6
Properties=species:S:1:pos:R:3 frame=T 46=T |=T Written=T by=T MDAnalysis=T XYZWriter=T (release=T 2.4.3)=T pbc="F F F"
H       13.01970000     -10.51564000     -18.57758000
O       13.06971000     -11.22007000     -17.90885000
H       12.15208000     -11.30002000     -17.66077000
H       12.42468000     -14.13115000     -17.33019000
O       12.05930000     -13.73146000     -18.11841000
H       12.61725000     -12.94810000     -18.16003000
