6
Properties=species:S:1:pos:R:3 frame=T 54=T |=T Written=T by=T MDAnalysis=T XYZWriter=T (release=T 2.4.3)=T pbc="F F F"
H       18.88526000     -11.62389000       8.14328000
O       18.23971000     -12.27916000       8.39729000
H       17.56914000     -11.70256000       8.79982000
H       16.02061000     -10.34234000       9.60476000
O       15.64803000     -10.93708000       8.96330000
H       16.03649000     -10.71868000       8.11078000
