6
Properties=species:S:1:pos:R:3 frame=T 11=T |=T Written=T by=T MDAnalysis=T XYZWriter=T (release=T 2.4.3)=T pbc="F F F"
H       -3.86691000      14.01555000      18.60685000
O       -3.87848000      14.35829000      17.66572000
H       -3.95778000      15.30520000      17.74935000
H       -5.34338000      13.33836000      17.34303000
O       -6.07887000      12.72277000      17.43934000
H       -5.70991000      12.17530000      18.13328000
