6
Properties=species:S:1:pos:R:3 frame=T 12=T |=T Written=T by=T MDAnalysis=T XYZWriter=T (release=T 2.4.3)=T pbc="F F F"
H       -0.16557000      -4.83462000       9.18950000
O        0.01684000      -4.79745000       8.25811000
H        0.48932000      -5.63164000       8.04700000
H        1.15764000      -3.41386000       8.62863000
O        1.43761000      -2.84491000       9.34314000
H        0.80179000      -2.12210000       9.24644000
