6
Properties=species:S:1:pos:R:3 frame=T 39=T |=T Written=T by=T MDAnalysis=T XYZWriter=T (release=T 2.4.3)=T pbc="F F F"
H       -9.31266000      -8.83733000       3.31356000
O       -9.01462000      -8.66036000       4.20096000
H       -8.63032000      -7.78657000       4.04132000
H      -11.16006000     -10.95702000       5.07354000
O      -10.22351000     -11.08858000       4.89443000
H       -9.85642000     -10.26574000       5.24023000
