6
Properties=species:S:1:pos:R:3 frame=T 47=T |=T Written=T by=T MDAnalysis=T XYZWriter=T (release=T 2.4.3)=T pbc="F F F"
H        9.07446000      18.17730000     -15.24131000
O        9.49551000      18.54779000     -16.02651000
H        9.58682000      19.52433000     -15.91527000
H       11.25442000      16.29958000     -15.13730000
O       11.64416000      17.15152000     -15.43457000
H       10.86083000      17.66149000     -15.68369000
