6
Properties=species:S:1:pos:R:3 frame=T 10=T |=T Written=T by=T MDAnalysis=T XYZWriter=T (release=T 2.4.3)=T pbc="F F F"
H      -14.84047000       7.11194000      14.72410000
O      -14.65901000       7.08809000      15.67968000
H      -14.48616000       8.02984000      15.90023000
H      -14.50985000       7.06431000      12.68893000
O      -14.97815000       7.83028000      13.09651000
H      -15.91268000       7.59589000      12.98272000
