6
Properties=species:S:1:pos:R:3 frame=T 46=T |=T Written=T by=T MDAnalysis=T XYZWriter=T (release=T 2.4.3)=T pbc="F F F"
H      -12.74896000       6.29124000       0.00404000
O      -12.50076000       5.36226000      -0.01450000
H      -11.50711000       5.37507000       0.06636000
H      -11.85115000       3.57082000       2.16105000
O      -12.38832000       3.17346000       1.43694000
H      -12.56680000       3.96850000       0.87135000
