6
Properties=species:S:1:pos:R:3 frame=T 38=T |=T Written=T by=T MDAnalysis=T XYZWriter=T (release=T 2.4.3)=T pbc="F F F"
H        4.90734000     -11.60075000      -7.11433000
O        5.45342000     -12.35528000      -6.90132000
H        5.03288000     -13.04424000      -7.43461000
H        3.74596000     -10.89283000      -8.51105000
O        3.77523000     -10.46645000      -7.63737000
H        3.85876000      -9.51311000      -7.80691000
