6
Properties=species:S:1:pos:R:3 frame=T 30=T |=T Written=T by=T MDAnalysis=T XYZWriter=T (release=T 2.4.3)=T pbc="F F F"
H       14.64221000      14.19523000      14.83909000
O       14.79598000      14.05124000      13.90494000
H       15.64915000      14.44162000      13.77451000
H       17.67919000      15.78030000      13.25169000
O       16.91466000      15.41075000      12.81626000
H       17.06723000      15.49455000      11.85536000
