6
Properties=species:S:1:pos:R:3 frame=T 43=T |=T Written=T by=T MDAnalysis=T XYZWriter=T (release=T 2.4.3)=T pbc="F F F"
H      -14.17706000     -13.98307000       8.17845000
O      -14.63873000     -14.03067000       7.28843000
H      -14.16782000     -14.79517000       6.92737000
H      -15.98874000     -13.57193000       8.05698000
O      -16.61775000     -13.43052000       8.78548000
H      -16.47679000     -12.53122000       9.09373000
