6
Properties=species:S:1:pos:R:3 frame=T 34=T |=T Written=T by=T MDAnalysis=T XYZWriter=T (release=T 2.4.3)=T pbc="F F F"
H        2.54844000     -13.98230000      14.37495000
O        2.66054000     -13.94675000      15.34386000
H        3.34695000     -14.61552000      15.54348000
H        5.07305000     -16.45629000      15.94188000
O        4.44401000     -16.19809000      15.25470000
H        4.59652000     -16.80328000      14.51305000
