6
Properties=species:S:1:pos:R:3 frame=T 47=T |=T Written=T by=T MDAnalysis=T XYZWriter=T (release=T 2.4.3)=T pbc="F F F"
H       18.85398000     -10.75239000     -16.75544000
O       18.16405000     -11.43808000     -16.83699000
H       18.67668000     -12.26658000     -16.89035000
H       17.46070000     -10.38182000     -18.62029000
O       16.56896000      -9.95183000     -18.60260000
H       16.51318000      -9.69030000     -17.66752000
