6
Properties=species:S:1:pos:R:3 frame=T 2=T |=T Written=T by=T MDAnalysis=T XYZWriter=T (release=T 2.4.3)=T pbc="F F F"
H        1.92608000      -7.23860000     -10.22169000
O        1.74979000      -6.78926000     -11.06202000
H        1.93859000      -5.84032000     -10.89600000
H        3.14087000      -7.61047000      -8.41217000
O        2.59593000      -8.23264000      -8.98116000
H        1.71039000      -8.17658000      -8.58842000
