6
Properties=species:S:1:pos:R:3 frame=T 12=T |=T Written=T by=T MDAnalysis=T XYZWriter=T (release=T 2.4.3)=T pbc="F F F"
H       -4.29243000      15.92597000      -0.72036000
O       -4.48144000      16.51619000       0.00263000
H       -4.13454000      16.07933000       0.77654000
H       -5.54756000      14.06170000      -0.97702000
O       -5.00736000      14.39876000      -1.74773000
H       -5.56881000      15.01004000      -2.25731000
