6
Properties=species:S:1:pos:R:3 frame=T 37=T |=T Written=T by=T MDAnalysis=T XYZWriter=T (release=T 2.4.3)=T pbc="F F F"
H       -7.03594000      -1.33743000      -1.78405000
O       -7.35529000      -0.45574000      -1.58224000
H       -8.04193000      -0.64100000      -0.90482000
H       -8.35989000      -1.57851000       0.77143000
O       -9.19442000      -1.37568000       0.33739000
H       -9.54775000      -2.24603000       0.25209000
