6
Properties=species:S:1:pos:R:3 frame=T 31=T |=T Written=T by=T MDAnalysis=T XYZWriter=T (release=T 2.4.3)=T pbc="F F F"
H       11.75694000       1.75725000      -0.88754000
O       12.43160000       1.92927000      -0.24395000
H       12.06106000       1.47456000       0.55375000
H       12.78579000       0.13218000      -0.68307000
O       13.21588000      -0.52668000      -1.26334000
H       13.09932000      -1.39565000      -0.81184000
