6
Properties=species:S:1:pos:R:3 frame=T 2=T |=T Written=T by=T MDAnalysis=T XYZWriter=T (release=T 2.4.3)=T pbc="F F F"
H       -8.72574000     -16.95765000       9.52137000
O       -7.97015000     -16.78561000      10.04258000
H       -7.29554000     -17.41896000       9.73997000
H       -7.84094000     -15.44246000       8.51970000
O       -7.93775000     -14.90420000       7.68990000
H       -8.43097000     -15.49206000       7.08663000
