6
Properties=species:S:1:pos:R:3 frame=T 32=T |=T Written=T by=T MDAnalysis=T XYZWriter=T (release=T 2.4.3)=T pbc="F F F"
H        7.81257000       6.82357000       3.76950000
O        7.86873000       6.52177000       2.85303000
H        8.79434000       6.30050000       2.72637000
H        9.93011000       4.91371000       1.69846000
O       10.11664000       5.76591000       2.00770000
H       10.16740000       6.30963000       1.20894000
