6
Properties=species:S:1:pos:R:3 frame=T 2=T |=T Written=T by=T MDAnalysis=T XYZWriter=T (release=T 2.4.3)=T pbc="F F F"
H      -14.24895000      18.65660000     -12.67628000
O      -13.75782000      18.04687000     -12.09135000
H      -14.04725000      17.13164000     -12.37902000
H      -13.86667000      17.79471000      -9.96038000
O      -13.12047000      17.77943000      -9.31085000
H      -12.65749000      16.96793000      -9.59550000
