6
Properties=species:S:1:pos:R:3 frame=T 41=T |=T Written=T by=T MDAnalysis=T XYZWriter=T (release=T 2.4.3)=T pbc="F F F"
H      -18.92246000      17.60397000       1.47185000
O      -18.97284000      17.49026000       2.40285000
H      -18.39357000      18.14612000       2.83659000
H      -18.06277000      17.45550000      -1.31743000
O      -18.52087000      17.59099000      -0.47955000
H      -19.30328000      17.02460000      -0.52888000
