6
Properties=species:S:1:pos:R:3 frame=T 3=T |=T Written=T by=T MDAnalysis=T XYZWriter=T (release=T 2.4.3)=T pbc="F F F"
H       16.61848000     -16.72474000     -12.32022000
O       16.04145000     -17.46170000     -12.32500000
H       16.46643000     -18.07792000     -11.72200000
H       17.15718000     -15.16301000     -13.81958000
O       17.72657000     -15.01013000     -13.03954000
H       18.57985000     -15.05760000     -13.47800000
