6
Properties=species:S:1:pos:R:3 frame=T 25=T |=T Written=T by=T MDAnalysis=T XYZWriter=T (release=T 2.4.3)=T pbc="F F F"
H       -5.27943000      18.44134000     -12.92237000
O       -4.84664000      17.66384000     -13.27228000
H       -3.93810000      17.96735000     -13.48478000
H       -3.39185000      17.67868000     -10.39087000
O       -3.53100000      16.86156000     -10.87805000
H       -4.12304000      17.17341000     -11.58736000
