6
Properties=species:S:1:pos:R:3 frame=T 47=T |=T Written=T by=T MDAnalysis=T XYZWriter=T (release=T 2.4.3)=T pbc="F F F"
H      -16.91127000      -1.10321000       3.47085000
O      -16.93031000      -0.25496000       2.97563000
H      -16.19573000       0.22320000       3.41873000
H      -18.94147000       0.45190000       0.53967000
O      -18.05782000       0.06531000       0.48113000
H      -17.78242000       0.00936000       1.39388000
