6
Properties=species:S:1:pos:R:3 frame=T 23=T |=T Written=T by=T MDAnalysis=T XYZWriter=T (release=T 2.4.3)=T pbc="F F F"
H      -13.72218000     -11.18486000       8.65639000
O      -12.99364000     -10.55899000       8.49276000
H      -12.94005000     -10.59313000       7.51631000
H      -15.47475000     -13.16113000       8.06204000
O      -14.76721000     -12.51027000       8.17924000
H      -14.31176000     -12.62316000       7.37260000
