6
Properties=species:S:1:pos:R:3 frame=T 46=T |=T Written=T by=T MDAnalysis=T XYZWriter=T (release=T 2.4.3)=T pbc="F F F"
H      -11.50317000     -11.94784000       9.69568000
O      -10.94773000     -12.67072000       9.36933000
H      -10.70819000     -12.34996000       8.48115000
H      -11.17033000     -14.67475000       8.80589000
O      -11.19115000     -15.57158000       8.42606000
H      -11.51253000     -15.38896000       7.55829000
