6
Properties=species:S:1:pos:R:3 frame=T 49=T |=T Written=T by=T MDAnalysis=T XYZWriter=T (release=T 2.4.3)=T pbc="F F F"
H       16.69609000     -15.84884000      -6.16418000
O       17.22466000     -15.82353000      -6.93856000
H       18.12459000     -15.66301000      -6.64224000
H       19.37680000     -15.61401000      -5.01883000
O       18.74766000     -15.78558000      -4.27241000
H       19.01383000     -16.68633000      -3.94683000
