6
Properties=species:S:1:pos:R:3 frame=T 24=T |=T Written=T by=T MDAnalysis=T XYZWriter=T (release=T 2.4.3)=T pbc="F F F"
H      -15.98279000      16.92445000     -12.81040000
O      -16.74406000      16.78762000     -13.37932000
H      -16.60055000      17.39441000     -14.12055000
H      -18.51171000      18.02356000     -11.04183000
O      -17.56365000      17.90464000     -11.16642000
H      -17.54242000      17.52752000     -12.05381000
