6
Properties=species:S:1:pos:R:3 frame=T 14=T |=T Written=T by=T MDAnalysis=T XYZWriter=T (release=T 2.4.3)=T pbc="F F F"
H       10.59165000      16.89816000     -10.28008000
O       10.54252000      15.97690000     -10.56499000
H       10.41810000      15.48792000      -9.72701000
H       12.85630000      16.18276000      -9.46213000
O       13.04750000      15.32701000      -9.84134000
H       12.29762000      15.19985000     -10.42450000
