6
Properties=species:S:1:pos:R:3 frame=T 21=T |=T Written=T by=T MDAnalysis=T XYZWriter=T (release=T 2.4.3)=T pbc="F F F"
H        7.35503000      10.44532000      -4.47348000
O        6.93566000      10.21870000      -5.29638000
H        6.39857000      10.95285000      -5.57170000
H        7.22679000      12.23071000      -3.20506000
O        7.84133000      12.67499000      -3.79655000
H        7.55896000      12.47558000      -4.71785000
