6
Properties=species:S:1:pos:R:3 frame=T 12=T |=T Written=T by=T MDAnalysis=T XYZWriter=T (release=T 2.4.3)=T pbc="F F F"
H        9.59909000       1.24832000      18.05000000
O        9.67988000       0.34325000      17.74899000
H       10.14988000      -0.09172000      18.48348000
H        8.68547000       3.24550000      17.25140000
O        9.49630000       3.65241000      17.57783000
H        9.55727000       4.50740000      17.12554000
