6
Properties=species:S:1:pos:R:3 frame=T 31=T |=T Written=T by=T MDAnalysis=T XYZWriter=T (release=T 2.4.3)=T pbc="F F F"
H        8.68448000       2.16096000      10.90764000
O        7.98211000       1.78468000      10.34256000
H        7.47873000       1.27025000      11.00964000
H        7.92656000       2.38904000       8.21285000
O        8.31196000       1.99105000       7.44222000
H        8.18482000       2.63529000       6.71643000
