6
Properties=species:S:1:pos:R:3 frame=T 35=T |=T Written=T by=T MDAnalysis=T XYZWriter=T (release=T 2.4.3)=T pbc="F F F"
H       18.13049000      -9.67562000       3.16728000
O       17.96698000      -9.93022000       2.25187000
H       18.84208000     -10.17152000       1.89457000
H       17.95349000     -10.16316000       5.41640000
O       17.63685000      -9.42785000       5.96353000
H       18.46029000      -8.97787000       6.17221000
