6
Properties=species:S:1:pos:R:3 frame=T 14=T |=T Written=T by=T MDAnalysis=T XYZWriter=T (release=T 2.4.3)=T pbc="F F F"
H        5.74957000       3.78448000     -17.32659000
O        5.21042000       4.44496000     -16.90633000
H        4.72147000       4.82369000     -17.66088000
H        5.74782000       7.03792000     -16.54906000
O        5.49538000       7.78353000     -15.95109000
H        5.02101000       7.33767000     -15.21177000
