6
Properties=species:S:1:pos:R:3 frame=T 28=T |=T Written=T by=T MDAnalysis=T XYZWriter=T (release=T 2.4.3)=T pbc="F F F"
H      -17.81104000      -8.52284000      -9.92397000
O      -18.54081000      -8.04419000     -10.33709000
H      -18.98792000      -7.61426000      -9.61582000
H      -15.29671000      -6.99378000      -9.59636000
O      -16.05503000      -6.60876000      -9.09946000
H      -16.67547000      -6.41487000      -9.81193000
