6
Properties=species:S:1:pos:R:3 frame=T 39=T |=T Written=T by=T MDAnalysis=T XYZWriter=T (release=T 2.4.3)=T pbc="F F F"
H      -19.05809000       5.42768000      -9.28173000
O      -18.38864000       5.69166000      -9.95297000
H      -17.70189000       6.17859000      -9.45768000
H      -18.57298000       7.57387000     -10.12038000
O      -18.60346000       8.37518000      -9.56863000
H      -18.14987000       9.03183000     -10.12860000
