6
Properties=species:S:1:pos:R:3 frame=T 32=T |=T Written=T by=T MDAnalysis=T XYZWriter=T (release=T 2.4.3)=T pbc="F F F"
H        9.30090000      12.46614000      17.99583000
O        8.68286000      11.75375000      18.22672000
H        7.87710000      12.19178000      18.50274000
H        7.66399000      12.72848000      16.29444000
O        7.05238000      13.45210000      16.44330000
H        7.41641000      14.21432000      15.98384000
