6
Properties=species:S:1:pos:R:3 frame=T 41=T |=T Written=T by=T MDAnalysis=T XYZWriter=T (release=T 2.4.3)=T pbc="F F F"
H       10.13546000     -12.11776000      14.73554000
O        9.33198000     -12.65272000      14.54508000
H        9.56232000     -13.32862000      13.87387000
H        7.53442000     -12.34033000      15.28123000
O        6.85561000     -11.65893000      15.30632000
H        6.84044000     -11.38420000      14.40844000
