6
Properties=species:S:1:pos:R:3 frame=T 12=T |=T Written=T by=T MDAnalysis=T XYZWriter=T (release=T 2.4.3)=T pbc="F F F"
H        6.42383000      -9.02052000      -2.80199000
O        6.72349000      -8.85753000      -3.69356000
H        7.53713000      -8.34095000      -3.54752000
H        7.31548000      -6.44467000      -1.67425000
O        8.02470000      -6.70346000      -2.26788000
H        7.99318000      -6.08673000      -2.94139000
