6
Properties=species:S:1:pos:R:3 frame=T 35=T |=T Written=T by=T MDAnalysis=T XYZWriter=T (release=T 2.4.3)=T pbc="F F F"
H       -9.97508000      17.80184000       8.59467000
O      -10.40272000      17.54536000       9.43413000
H      -11.29710000      17.30056000       9.19873000
H       -9.33687000      19.01991000      12.04413000
O       -9.11896000      18.09610000      11.92952000
H       -9.42940000      17.89098000      11.04302000
