6
Properties=species:S:1:pos:R:3 frame=T 33=T |=T Written=T by=T MDAnalysis=T XYZWriter=T (release=T 2.4.3)=T pbc="F F F"
H        3.22513000     -14.66939000      13.71611000
O        3.30794000     -14.12185000      14.51847000
H        3.89916000     -14.61941000      15.09214000
H        4.74658000     -16.85900000      16.04505000
O        4.88882000     -16.36720000      15.21819000
H        5.54558000     -16.94393000      14.78761000
