6
Properties=species:S:1:pos:R:3 frame=T 44=T |=T Written=T by=T MDAnalysis=T XYZWriter=T (release=T 2.4.3)=T pbc="F F F"
H       15.03399000       0.04620000     -14.22808000
O       14.41731000      -0.65163000     -14.47708000
H       14.97606000      -1.38315000     -14.77407000
H       13.60412000       0.41717000     -16.07678000
O       12.79820000       0.65168000     -16.51329000
H       13.10182000       1.07318000     -17.31729000
