6
Properties=species:S:1:pos:R:3 frame=T 49=T |=T Written=T by=T MDAnalysis=T XYZWriter=T (release=T 2.4.3)=T pbc="F F F"
H        4.27884000       6.51413000      -3.13661000
O        3.49333000       6.07482000      -3.46364000
H        3.70969000       5.77490000      -4.33495000
H        5.54780000       5.71153000      -6.27349000
O        5.39886000       6.25595000      -5.48248000
H        5.96541000       7.02218000      -5.66562000
