6
Properties=species:S:1:pos:R:3 frame=T 52=T |=T Written=T by=T MDAnalysis=T XYZWriter=T (release=T 2.4.3)=T pbc="F F F"
H       12.69728000       1.20881000     -17.51794000
O       13.32787000       1.73834000     -17.00676000
H       13.97889000       2.03408000     -17.64708000
H       11.96014000      -0.39764000     -19.22710000
O       11.64870000       0.14870000     -18.51921000
H       11.64257000       1.02598000     -18.93716000
