6
Properties=species:S:1:pos:R:3 frame=T 22=T |=T Written=T by=T MDAnalysis=T XYZWriter=T (release=T 2.4.3)=T pbc="F F F"
H      -12.81465000       9.55594000      -1.63952000
O      -13.60802000       9.66007000      -2.21350000
H      -14.33279000       9.45118000      -1.60296000
H      -14.61483000       7.22740000      -3.81664000
O      -13.72727000       7.32793000      -3.42912000
H      -13.80247000       8.20856000      -2.95516000
