6
Properties=species:S:1:pos:R:3 frame=T 7=T |=T Written=T by=T MDAnalysis=T XYZWriter=T (release=T 2.4.3)=T pbc="F F F"
H        7.60599000       5.89210000       7.21227000
O        8.50433000       6.17291000       7.41233000
H        8.95680000       5.43622000       7.82182000
H       10.90579000       5.45730000       7.72549000
O       10.48058000       4.69982000       8.16528000
H       10.59136000       4.90925000       9.10677000
