6
Properties=species:S:1:pos:R:3 frame=T 30=T |=T Written=T by=T MDAnalysis=T XYZWriter=T (release=T 2.4.3)=T pbc="F F F"
H       18.42985000       6.55308000     -13.75587000
O       18.08372000       7.10056000     -14.46715000
H       18.12594000       6.50322000     -15.21809000
H       15.29731000       6.40066000     -13.74466000
O       15.29904000       7.34355000     -13.44757000
H       16.21178000       7.56724000     -13.71400000
