6
Properties=species:S:1:pos:R:3 frame=T 7=T |=T Written=T by=T MDAnalysis=T XYZWriter=T (release=T 2.4.3)=T pbc="F F F"
H       -7.62479000       9.53370000       5.94954000
O       -6.91841000       9.24708000       5.32003000
H       -7.39667000       9.03386000       4.49818000
H       -7.38144000       7.54294000       2.11498000
O       -7.76679000       8.12924000       2.75051000
H       -7.65261000       8.99837000       2.36570000
