6
Properties=species:S:1:pos:R:3 frame=T 49=T |=T Written=T by=T MDAnalysis=T XYZWriter=T (release=T 2.4.3)=T pbc="F F F"
H        1.42327000      12.63844000     -11.11188000
O        0.69681000      12.87465000     -11.75234000
H        1.01161000      12.62288000     -12.61839000
H        1.88946000      12.39255000      -8.99738000
O        2.58779000      12.33068000      -9.66367000
H        3.20107000      11.78987000      -9.17766000
