6
Properties=species:S:1:pos:R:3 frame=T 39=T |=T Written=T by=T MDAnalysis=T XYZWriter=T (release=T 2.4.3)=T pbc="F F F"
H        5.75891000      12.34784000       5.79042000
O        4.87451000      11.88618000       5.77559000
H        5.10043000      10.97619000       6.05120000
H        5.35751000      12.36320000       3.61510000
O        5.67880000      12.18266000       2.74236000
H        5.54598000      11.23191000       2.60918000
