6
Properties=species:S:1:pos:R:3 frame=T 24=T |=T Written=T by=T MDAnalysis=T XYZWriter=T (release=T 2.4.3)=T pbc="F F F"
H        2.36476000      17.64885000       0.49858000
O        2.65528000      17.70321000      -0.43467000
H        3.60828000      17.93013000      -0.35788000
H        5.05893000      18.72513000       0.58320000
O        5.28592000      18.52666000      -0.33388000
H        5.86292000      17.75937000      -0.36754000
