6
Properties=species:S:1:pos:R:3 frame=T 18=T |=T Written=T by=T MDAnalysis=T XYZWriter=T (release=T 2.4.3)=T pbc="F F F"
H       -0.61527000      -0.19096000       4.94882000
O       -1.56670000      -0.32768000       4.84474000
H       -1.74982000      -0.77464000       4.01189000
H        1.37569000      -1.44830000       4.59929000
O        1.39020000      -0.54571000       4.96977000
H        1.33228000       0.06825000       4.22790000
