6
Properties=species:S:1:pos:R:3 frame=T 42=T |=T Written=T by=T MDAnalysis=T XYZWriter=T (release=T 2.4.3)=T pbc="F F F"
H       -7.62374000      11.65451000     -16.81655000
O       -8.07901000      12.11682000     -17.51654000
H       -8.91016000      11.63245000     -17.57933000
H       -9.41118000      12.65435000     -14.46175000
O       -8.63205000      13.10438000     -14.79743000
H       -8.63457000      12.96180000     -15.76961000
