6
Properties=species:S:1:pos:R:3 frame=T 32=T |=T Written=T by=T MDAnalysis=T XYZWriter=T (release=T 2.4.3)=T pbc="F F F"
H      -16.65297000       6.47775000      -2.94013000
O      -16.86155000       5.56885000      -2.74173000
H      -17.13225000       5.58533000      -1.84013000
H      -17.74556000       8.30764000      -4.14945000
O      -18.12651000       7.99524000      -3.30754000
H      -17.40776000       8.22715000      -2.69753000
