6
Properties=species:S:1:pos:R:3 frame=T 39=T |=T Written=T by=T MDAnalysis=T XYZWriter=T (release=T 2.4.3)=T pbc="F F F"
H       -0.59377000       2.35917000      16.37003000
O        0.02816000       2.01228000      15.72237000
H       -0.31398000       1.10318000      15.54387000
H       -1.19246000       3.05398000      12.96786000
O       -1.50584000       3.11230000      13.85633000
H       -0.96267000       2.46653000      14.35214000
