6
Properties=species:S:1:pos:R:3 frame=T 50=T |=T Written=T by=T MDAnalysis=T XYZWriter=T (release=T 2.4.3)=T pbc="F F F"
H       -7.80305000     -16.90935000       2.06085000
O       -8.65902000     -17.35674000       1.95592000
H       -8.48817000     -18.01034000       1.25041000
H       -8.50889000     -16.95390000       3.91125000
O       -8.10399000     -16.49311000       4.68909000
H       -8.65547000     -16.69665000       5.47929000
