6
Properties=species:S:1:pos:R:3 frame=T 16=T |=T Written=T by=T MDAnalysis=T XYZWriter=T (release=T 2.4.3)=T pbc="F F F"
H      -11.39436000      11.12963000     -12.14344000
O      -11.56908000      10.34453000     -11.59684000
H      -11.89501000      10.77826000     -10.78542000
H      -14.27559000      11.00937000     -12.99980000
O      -13.71946000      10.43608000     -13.51397000
H      -13.06741000      10.17536000     -12.88166000
