6
Properties=species:S:1:pos:R:3 frame=T 41=T |=T Written=T by=T MDAnalysis=T XYZWriter=T (release=T 2.4.3)=T pbc="F F F"
H       -4.88228000      12.98732000     -17.43012000
O       -4.57484000      12.10212000     -17.45604000
H       -4.85659000      11.76217000     -16.60662000
H       -5.92640000      12.56511000     -14.97410000
O       -5.33217000      11.83746000     -14.73020000
H       -5.88813000      11.04410000     -14.60823000
