6
Properties=species:S:1:pos:R:3 frame=T 3=T |=T Written=T by=T MDAnalysis=T XYZWriter=T (release=T 2.4.3)=T pbc="F F F"
H        4.03700000      -2.40928000       0.84692000
O        3.98772000      -3.32012000       0.55720000
H        4.69706000      -3.41910000      -0.07048000
H        5.56255000      -3.45035000       3.10779000
O        5.18166000      -2.61408000       3.38497000
H        5.04160000      -2.20246000       2.53846000
