6
Properties=species:S:1:pos:R:3 frame=T 40=T |=T Written=T by=T MDAnalysis=T XYZWriter=T (release=T 2.4.3)=T pbc="F F F"
H       -1.93743000      17.93208000      17.38589000
O       -2.78815000      17.49864000      17.46908000
H       -2.65933000      17.01576000      18.29499000
H       -3.14681000      17.81285000      15.07805000
O       -3.74615000      17.07249000      14.89119000
H       -3.66226000      16.50581000      15.65796000
