6
Properties=species:S:1:pos:R:3 frame=T 42=T |=T Written=T by=T MDAnalysis=T XYZWriter=T (release=T 2.4.3)=T pbc="F F F"
H      -12.19143000       2.83731000       8.32456000
O      -12.36204000       3.39654000       9.12036000
H      -11.77507000       4.19840000       8.99009000
H      -13.32876000       3.43065000       6.79932000
O      -13.84954000       4.24146000       6.78449000
H      -13.39750000       4.79210000       6.11814000
