6
Properties=species:S:1:pos:R:3 frame=T 25=T |=T Written=T by=T MDAnalysis=T XYZWriter=T (release=T 2.4.3)=T pbc="F F F"
H       13.70869000     -18.82991000       6.86289000
O       12.98481000     -18.46110000       6.31356000
H       12.42133000     -17.97385000       6.92051000
H       15.63204000     -18.53603000       8.15506000
O       14.71964000     -18.84824000       8.27058000
H       14.35525000     -18.29793000       8.97265000
