6
Properties=species:S:1:pos:R:3 frame=T 27=T |=T Written=T by=T MDAnalysis=T XYZWriter=T (release=T 2.4.3)=T pbc="F F F"
H       16.22983000       1.62047000       5.99971000
O       15.67184000       1.27349000       6.73150000
H       16.26053000       1.35440000       7.50219000
H       17.01421000      -0.61533000       8.37464000
O       16.89569000       0.22960000       8.83203000
H       15.98562000       0.25447000       9.10326000
