6
Properties=species:S:1:pos:R:3 frame=T 27=T |=T Written=T by=T MDAnalysis=T XYZWriter=T (release=T 2.4.3)=T pbc="F F F"
H        3.78964000       8.44844000      -1.58345000
O        4.53102000       8.14151000      -1.05064000
H        5.31778000       8.48952000      -1.54092000
H        4.00352000       9.92349000      -0.50124000
O        3.85493000      10.85437000      -0.22992000
H        2.93306000      10.83870000      -0.00108000
