6
Properties=species:S:1:pos:R:3 frame=T 43=T |=T Written=T by=T MDAnalysis=T XYZWriter=T (release=T 2.4.3)=T pbc="F F F"
H        3.55955000      16.40453000     -14.24276000
O        4.21320000      15.81623000     -13.86110000
H        4.89569000      16.49926000     -13.76344000
H        5.15998000      17.90515000     -12.04796000
O        5.31065000      18.02518000     -13.00170000
H        6.27037000      18.07440000     -13.00932000
