6
Properties=species:S:1:pos:R:3 frame=T 34=T |=T Written=T by=T MDAnalysis=T XYZWriter=T (release=T 2.4.3)=T pbc="F F F"
H      -12.75549000     -12.57066000      11.72171000
O      -12.85246000     -13.46684000      12.01201000
H      -13.33874000     -13.41025000      12.83294000
H      -14.17468000     -14.81340000       9.98856000
O      -14.06347000     -15.37271000      10.76666000
H      -13.60528000     -14.81302000      11.40987000
