6
Properties=species:S:1:pos:R:3 frame=T 0=T |=T Written=T by=T MDAnalysis=T XYZWriter=T (release=T 2.4.3)=T pbc="F F F"
H        8.56628000      -2.17236000      -1.04829000
O        8.82788000      -1.68249000      -0.22912000
H        9.78077000      -1.53666000      -0.32540000
H        9.09954000      -1.05309000      -2.30884000
O        9.85459000      -0.67860000      -2.79708000
H        9.46358000      -0.47945000      -3.66963000
