6
Properties=species:S:1:pos:R:3 frame=T 39=T |=T Written=T by=T MDAnalysis=T XYZWriter=T (release=T 2.4.3)=T pbc="F F F"
H       15.02054000      -6.71133000      15.01630000
O       14.56577000      -6.26868000      15.72022000
H       13.66429000      -6.22746000      15.39149000
H       15.51846000      -5.35974000      17.03954000
O       16.24025000      -5.03630000      17.56437000
H       16.07775000      -5.37173000      18.46407000
