6
Properties=species:S:1:pos:R:3 frame=T 23=T |=T Written=T by=T MDAnalysis=T XYZWriter=T (release=T 2.4.3)=T pbc="F F F"
H       -4.90279000      17.97480000      -8.87373000
O       -4.05615000      17.64535000      -9.10063000
H       -3.95980000      17.86094000     -10.04844000
H       -5.72039000      15.76841000     -11.40085000
O       -5.35471000      15.41504000     -10.57088000
H       -5.12688000      16.21934000     -10.08545000
