6
Properties=species:S:1:pos:R:3 frame=T 27=T |=T Written=T by=T MDAnalysis=T XYZWriter=T (release=T 2.4.3)=T pbc="F F F"
H       18.34193000      -0.72718000      -4.28409000
O       19.17983000      -0.78529000      -3.83346000
H       19.42956000       0.14279000      -3.58769000
H       17.46022000       0.49538000      -6.07759000
O       16.90494000       0.41059000      -5.25412000
H       16.55414000       1.28887000      -5.10542000
