6
Properties=species:S:1:pos:R:3 frame=T 17=T |=T Written=T by=T MDAnalysis=T XYZWriter=T (release=T 2.4.3)=T pbc="F F F"
H       -9.01906000       0.81050000      -6.95687000
O       -8.14718000       0.99868000      -6.56547000
H       -7.82052000       0.09374000      -6.48331000
H       -7.42723000      -0.29479000      -4.44205000
O       -7.62390000      -1.21950000      -4.17241000
H       -7.36176000      -1.70922000      -4.96694000
