6
Properties=species:S:1:pos:R:3 frame=T 49=T |=T Written=T by=T MDAnalysis=T XYZWriter=T (release=T 2.4.3)=T pbc="F F F"
H       12.91186000      -1.59580000      -4.62709000
O       13.35015000      -0.84233000      -4.24716000
H       13.16203000      -0.91224000      -3.29328000
H       13.25294000      -0.92961000      -1.69367000
O       12.47651000      -1.42925000      -1.44262000
H       11.85102000      -0.75004000      -1.24623000
