6
Properties=species:S:1:pos:R:3 frame=T 21=T |=T Written=T by=T MDAnalysis=T XYZWriter=T (release=T 2.4.3)=T pbc="F F F"
H       -1.16428000       5.17934000      -3.38971000
O       -0.50345000       5.88130000      -3.20175000
H       -0.63230000       6.02382000      -2.25058000
H       -1.80237000       5.84285000      -0.66268000
O       -0.98647000       6.32945000      -0.55087000
H       -0.42541000       5.76853000       0.01486000
