6
Properties=species:S:1:pos:R:3 frame=T 53=T |=T Written=T by=T MDAnalysis=T XYZWriter=T (release=T 2.4.3)=T pbc="F F F"
H      -15.05793000       4.57859000      -3.95480000
O      -15.55588000       5.42463000      -3.86154000
H      -16.08484000       5.28891000      -3.07850000
H      -14.19200000       1.66481000      -3.42650000
O      -14.04434000       2.62686000      -3.40688000
H      -14.42668000       2.89011000      -2.57865000
