6
Properties=species:S:1:pos:R:3 frame=T 45=T |=T Written=T by=T MDAnalysis=T XYZWriter=T (release=T 2.4.3)=T pbc="F F F"
H        8.20933000      -6.99971000     -12.29843000
O        8.88464000      -6.64419000     -11.72611000
H        8.50605000      -5.81407000     -11.36241000
H        7.32783000      -4.14629000     -11.69314000
O        6.55817000      -4.71307000     -11.77794000
H        6.87506000      -5.28899000     -12.50198000
