6
Properties=species:S:1:pos:R:3 frame=T 39=T |=T Written=T by=T MDAnalysis=T XYZWriter=T (release=T 2.4.3)=T pbc="F F F"
H        9.11575000       2.71435000     -17.73762000
O        9.13615000       2.20903000     -16.93394000
H        9.03403000       1.28143000     -17.20552000
H        7.74040000      -0.86892000     -17.54860000
O        7.91067000      -0.71184000     -16.62873000
H        7.92847000      -1.60303000     -16.24530000
