6
Properties=species:S:1:pos:R:3 frame=T 28=T |=T Written=T by=T MDAnalysis=T XYZWriter=T (release=T 2.4.3)=T pbc="F F F"
H      -18.91311000       6.24960000      15.31680000
O      -18.45070000       6.18772000      16.18157000
H      -18.63442000       5.24574000      16.42173000
H      -19.51523000       7.61120000      13.02037000
O      -18.96368000       6.86847000      12.72176000
H      -18.02669000       7.17677000      12.74373000
