6
Properties=species:S:1:pos:R:3 frame=T 51=T |=T Written=T by=T MDAnalysis=T XYZWriter=T (release=T 2.4.3)=T pbc="F F F"
H       15.83409000      19.46784000      17.39136000
O       15.97569000      18.92501000      18.16554000
H       16.37488000      18.15212000      17.73282000
H       16.21109000      15.79671000      17.52786000
O       16.98731000      16.36652000      17.61802000
H       17.58540000      15.84103000      17.09048000
