6
Properties=species:S:1:pos:R:3 frame=T 0=T |=T Written=T by=T MDAnalysis=T XYZWriter=T (release=T 2.4.3)=T pbc="F F F"
H      -14.14473000      14.60375000     -16.75958000
O      -15.02183000      15.01060000     -16.79755000
H      -15.58484000      14.32628000     -16.45067000
H      -14.00967000      14.45644000     -18.51653000
O      -13.74475000      15.00213000     -19.28432000
H      -12.92839000      15.43191000     -18.94487000
