6
Properties=species:S:1:pos:R:3 frame=T 2=T |=T Written=T by=T MDAnalysis=T XYZWriter=T (release=T 2.4.3)=T pbc="F F F"
H        7.11862000     -17.84507000      15.26781000
O        6.56806000     -17.03857000      15.25016000
H        6.79351000     -16.54477000      16.05348000
H        8.37564000     -16.07529000      17.16085000
O        7.98951000     -15.17701000      17.26437000
H        7.26990000     -15.31252000      17.87794000
