6
Properties=species:S:1:pos:R:3 frame=T 2=T |=T Written=T by=T MDAnalysis=T XYZWriter=T (release=T 2.4.3)=T pbc="F F F"
H      -12.37763000       7.01823000       8.05079000
O      -11.58754000       7.51453000       8.33915000
H      -10.88623000       7.03802000       7.85793000
H      -14.41666000       6.91674000       7.26164000
O      -13.76196000       6.31159000       7.69124000
H      -14.03985000       6.24391000       8.60544000
