6
Properties=species:S:1:pos:R:3 frame=T 53=T |=T Written=T by=T MDAnalysis=T XYZWriter=T (release=T 2.4.3)=T pbc="F F F"
H       11.64896000      -1.72001000       2.51562000
O       11.01363000      -2.44050000       2.68901000
H       11.09849000      -2.94835000       1.88049000
H        9.47136000      -2.94183000       3.59138000
O        8.65119000      -3.36123000       3.81817000
H        8.69979000      -3.35096000       4.77496000
