6
Properties=species:S:1:pos:R:3 frame=T 43=T |=T Written=T by=T MDAnalysis=T XYZWriter=T (release=T 2.4.3)=T pbc="F F F"
H      -10.47421000      16.44473000       9.33010000
O      -11.26834000      16.89686000       9.16218000
H      -11.88547000      16.23824000       8.84292000
H       -9.26844000      18.41503000       6.56517000
O       -8.96215000      17.90585000       7.32265000
H       -9.80101000      17.57529000       7.63157000
