6
Properties=species:S:1:pos:R:3 frame=T 23=T |=T Written=T by=T MDAnalysis=T XYZWriter=T (release=T 2.4.3)=T pbc="F F F"
H       -6.17621000     -14.99351000       3.35233000
O       -6.50024000     -14.69003000       2.49629000
H       -7.45250000     -14.80976000       2.61389000
H       -6.86459000     -12.70129000       1.90230000
O       -6.79283000     -11.74268000       1.94368000
H       -5.89831000     -11.60297000       1.56014000
