6
Properties=species:S:1:pos:R:3 frame=T 32=T |=T Written=T by=T MDAnalysis=T XYZWriter=T (release=T 2.4.3)=T pbc="F F F"
H        4.11406000     -15.09650000      11.67695000
O        4.14032000     -14.10876000      11.77471000
H        4.48311000     -13.79845000      10.93471000
H        5.59552000     -13.89030000       8.50207000
O        5.92085000     -14.07292000       9.39332000
H        6.13322000     -15.01819000       9.28216000
