6
Properties=species:S:1:pos:R:3 frame=T 53=T |=T Written=T by=T MDAnalysis=T XYZWriter=T (release=T 2.4.3)=T pbc="F F F"
H      -14.53060000      15.07810000      -8.74337000
O      -14.71371000      15.98076000      -9.04070000
H      -13.88510000      16.30431000      -9.39896000
H      -11.20114000      15.39010000     -10.05173000
O      -12.03257000      15.01269000     -10.40553000
H      -12.44408000      14.63651000      -9.63681000
