6
Properties=species:S:1:pos:R:3 frame=T 20=T |=T Written=T by=T MDAnalysis=T XYZWriter=T (release=T 2.4.3)=T pbc="F F F"
H      -11.90666000      17.16884000       1.45115000
O      -11.09188000      16.71955000       1.18728000
H      -11.34481000      16.30476000       0.36974000
H      -12.60170000      18.61775000       2.75562000
O      -13.31296000      18.29453000       2.18867000
H      -14.09638000      18.64632000       2.61443000
