6
Properties=species:S:1:pos:R:3 frame=T 26=T |=T Written=T by=T MDAnalysis=T XYZWriter=T (release=T 2.4.3)=T pbc="F F F"
H       -8.36129000     -12.63111000      -1.66076000
O       -7.74580000     -11.90923000      -1.37961000
H       -7.33478000     -11.66455000      -2.21626000
H      -10.35763000     -13.56946000      -1.61736000
O       -9.59230000     -13.63504000      -2.21267000
H       -9.05146000     -14.32612000      -1.81619000
