6
Properties=species:S:1:pos:R:3 frame=T 22=T |=T Written=T by=T MDAnalysis=T XYZWriter=T (release=T 2.4.3)=T pbc="F F F"
H        2.55993000     -16.40877000     -17.88664000
O        3.00696000     -15.54339000     -17.80356000
H        2.44890000     -15.16225000     -17.09210000
H        5.29813000     -16.45435000     -16.52781000
O        5.38541000     -15.53011000     -16.27518000
H        4.79712000     -15.09144000     -16.85925000
