6
Properties=species:S:1:pos:R:3 frame=T 51=T |=T Written=T by=T MDAnalysis=T XYZWriter=T (release=T 2.4.3)=T pbc="F F F"
H       -5.59535000      18.33357000       7.05358000
O       -5.14067000      18.14879000       6.21502000
H       -5.85944000      18.28308000       5.60240000
H       -6.15138000      18.02501000       3.21364000
O       -6.50939000      18.60373000       3.88532000
H       -7.40939000      18.67802000       3.54648000
