6
Properties=species:S:1:pos:R:3 frame=T 14=T |=T Written=T by=T MDAnalysis=T XYZWriter=T (release=T 2.4.3)=T pbc="F F F"
H        8.71754000      -0.55084000      15.52277000
O        8.44185000      -0.01161000      14.76025000
H        9.26528000       0.33926000      14.39315000
H       11.80340000      -0.54824000      14.01999000
O       11.24040000      -0.29095000      14.76558000
H       11.50700000      -0.91623000      15.43117000
