6
Properties=species:S:1:pos:R:3 frame=T 8=T |=T Written=T by=T MDAnalysis=T XYZWriter=T (release=T 2.4.3)=T pbc="F F F"
H       -7.39181000      -8.59799000      13.70703000
O       -8.31097000      -8.37718000      13.48073000
H       -8.62310000      -7.71126000      14.11721000
H       -5.67208000      -7.66246000      13.13473000
O       -5.75336000      -8.35126000      13.79110000
H       -5.24589000      -7.99456000      14.53974000
