6
Properties=species:S:1:pos:R:3 frame=T 35=T |=T Written=T by=T MDAnalysis=T XYZWriter=T (release=T 2.4.3)=T pbc="F F F"
H       -2.17320000      10.48117000      17.40637000
O       -2.77284000      10.82709000      16.76797000
H       -3.25054000      11.44952000      17.35582000
H       -5.45968000      11.89939000      16.94556000
O       -5.11008000      12.66674000      17.39186000
H       -5.16140000      13.39125000      16.80344000
