6
Properties=species:S:1:pos:R:3 frame=T 25=T |=T Written=T by=T MDAnalysis=T XYZWriter=T (release=T 2.4.3)=T pbc="F F F"
H       -0.52080000       0.35699000      -7.76764000
O       -1.46531000       0.08346000      -7.81726000
H       -1.81149000       0.82114000      -8.27926000
H       -0.70152000      -2.13394000      -9.30594000
O       -1.66563000      -2.17460000      -9.21538000
H       -1.80189000      -1.48527000      -8.55279000
