6
Properties=species:S:1:pos:R:3 frame=T 53=T |=T Written=T by=T MDAnalysis=T XYZWriter=T (release=T 2.4.3)=T pbc="F F F"
H      -13.17310000      -4.75705000      12.80433000
O      -12.92943000      -5.66175000      13.09523000
H      -12.99645000      -6.13951000      12.22763000
H      -11.20083000      -7.58815000      11.32938000
O      -11.36553000      -6.70005000      10.98427000
H      -10.46755000      -6.33009000      11.01985000
