6
Properties=species:S:1:pos:R:3 frame=T 13=T |=T Written=T by=T MDAnalysis=T XYZWriter=T (release=T 2.4.3)=T pbc="F F F"
H        9.06232000      18.33337000      17.53186000
O        8.77108000      17.48856000      17.12929000
H        7.92571000      17.33297000      17.57360000
H       11.26959000      18.42695000      14.96991000
O       10.86757000      17.57408000      15.15197000
H       10.25695000      17.75272000      15.90541000
