6
Properties=species:S:1:pos:R:3 frame=T 30=T |=T Written=T by=T MDAnalysis=T XYZWriter=T (release=T 2.4.3)=T pbc="F F F"
H        0.48794000       9.59461000      -2.30415000
O       -0.18137000      10.27102000      -2.15560000
H        0.26980000      11.08067000      -2.43911000
H       -0.40357000       7.79539000       0.37375000
O       -0.04139000       8.67376000       0.38682000
H       -0.04992000       9.00441000      -0.52437000
