6
Properties=species:S:1:pos:R:3 frame=T 41=T |=T Written=T by=T MDAnalysis=T XYZWriter=T (release=T 2.4.3)=T pbc="F F F"
H       -7.05125000      15.11614000     -13.31824000
O       -7.08456000      15.56406000     -12.45104000
H       -7.63406000      14.98214000     -11.92513000
H       -4.82740000      15.85451000     -10.84740000
O       -4.62762000      15.11236000     -11.43615000
H       -5.37944000      15.14405000     -12.03080000
