6
Properties=species:S:1:pos:R:3 frame=T 53=T |=T Written=T by=T MDAnalysis=T XYZWriter=T (release=T 2.4.3)=T pbc="F F F"
H       14.01725000      -5.52770000       8.72575000
O       14.43527000      -4.73600000       8.34660000
H       13.69768000      -4.24327000       8.00264000
H       15.25349000      -3.80499000       9.44978000
O       15.53864000      -3.29567000      10.20359000
H       14.83419000      -2.65779000      10.32853000
