6
Properties=species:S:1:pos:R:3 frame=T 19=T |=T Written=T by=T MDAnalysis=T XYZWriter=T (release=T 2.4.3)=T pbc="F F F"
H       -2.01409000      -1.78117000       2.02283000
O       -1.17201000      -1.52614000       2.38046000
H       -0.58924000      -1.61883000       1.65608000
H       -3.95012000      -3.02859000       0.06491000
O       -3.34613000      -2.80360000       0.76378000
H       -3.54741000      -3.37946000       1.52536000
