6
Properties=species:S:1:pos:R:3 frame=T 29=T |=T Written=T by=T MDAnalysis=T XYZWriter=T (release=T 2.4.3)=T pbc="F F F"
H      -12.39002000      -0.84176000     -18.37229000
O      -11.87779000      -0.09191000     -18.07273000
H      -12.56974000       0.58997000     -18.08525000
H      -10.07500000      -0.13058000     -17.61014000
O       -9.27223000      -0.64898000     -17.52726000
H       -9.08494000      -0.63062000     -16.59640000
