6
Properties=species:S:1:pos:R:3 frame=T 17=T |=T Written=T by=T MDAnalysis=T XYZWriter=T (release=T 2.4.3)=T pbc="F F F"
H        7.23002000     -18.73894000      -0.32185000
O        7.99115000     -18.31217000      -0.76035000
H        7.59694000     -17.60572000      -1.28219000
H       10.18977000     -18.41336000       1.91121000
O        9.25498000     -18.26771000       1.84283000
H        9.12961000     -18.24506000       0.89329000
