6
Properties=species:S:1:pos:R:3 frame=T 27=T |=T Written=T by=T MDAnalysis=T XYZWriter=T (release=T 2.4.3)=T pbc="F F F"
H       12.60301000       2.26654000     -12.41920000
O       11.90541000       2.43178000     -13.04909000
H       11.37807000       3.13042000     -12.60716000
H       15.03317000       3.09417000     -13.08220000
O       15.25315000       2.17757000     -13.08120000
H       14.45593000       1.76627000     -12.70270000
