6
Properties=species:S:1:pos:R:3 frame=T 53=T |=T Written=T by=T MDAnalysis=T XYZWriter=T (release=T 2.4.3)=T pbc="F F F"
H       11.82171000      -7.39110000      12.65953000
O       12.71788000      -7.64866000      12.90677000
H       12.86529000      -7.12230000      13.70625000
H       14.36974000      -8.35949000      12.82449000
O       14.85008000      -9.18742000      13.05163000
H       14.13512000      -9.64286000      13.51363000
