6
Properties=species:S:1:pos:R:3 frame=T 30=T |=T Written=T by=T MDAnalysis=T XYZWriter=T (release=T 2.4.3)=T pbc="F F F"
H        5.69190000     -11.77382000      11.26731000
O        5.08782000     -12.50266000      11.47092000
H        5.46080000     -12.92962000      12.25657000
H        6.56782000     -13.83919000      10.99472000
O        6.93255000     -14.61835000      10.61102000
H        6.42026000     -14.74872000       9.83004000
