6
Properties=species:S:1:pos:R:3 frame=T 19=T |=T Written=T by=T MDAnalysis=T XYZWriter=T (release=T 2.4.3)=T pbc="F F F"
H      -17.81274000      12.57957000      15.98832000
O      -16.92045000      12.82205000      16.22467000
H      -16.69343000      12.19682000      16.90950000
H      -16.44153000      11.39835000      18.80414000
O      -15.90693000      11.18014000      18.02270000
H      -16.30665000      10.33025000      17.73568000
