6
Properties=species:S:1:pos:R:3 frame=T 47=T |=T Written=T by=T MDAnalysis=T XYZWriter=T (release=T 2.4.3)=T pbc="F F F"
H       17.68458000      15.24224000       1.15464000
O       17.45600000      14.92981000       0.25683000
H       18.13898000      14.28728000       0.12764000
H       17.90965000      12.33062000       1.35077000
O       16.98839000      12.37630000       0.98430000
H       16.87848000      13.28037000       0.69528000
