6
Properties=species:S:1:pos:R:3 frame=T 36=T |=T Written=T by=T MDAnalysis=T XYZWriter=T (release=T 2.4.3)=T pbc="F F F"
H      -18.12206000      -5.83141000       2.83407000
O      -18.74125000      -6.19244000       2.19637000
H      -18.20702000      -6.30219000       1.39217000
H      -16.94378000      -9.87236000       3.13243000
O      -16.66745000      -9.11821000       2.66051000
H      -17.46523000      -8.54852000       2.58610000
