6
Properties=species:S:1:pos:R:3 frame=T 22=T |=T Written=T by=T MDAnalysis=T XYZWriter=T (release=T 2.4.3)=T pbc="F F F"
H       12.78323000      10.89795000      14.66250000
O       12.93352000       9.97733000      14.84913000
H       13.06940000       9.94335000      15.79886000
H       14.62429000       9.86515000      14.40047000
O       15.49739000       9.94265000      13.95980000
H       15.90581000      10.77973000      14.20716000
