6
Properties=species:S:1:pos:R:3 frame=T 47=T |=T Written=T by=T MDAnalysis=T XYZWriter=T (release=T 2.4.3)=T pbc="F F F"
H       -1.90691000      10.00699000       2.18059000
O       -1.29740000      10.25113000       1.46549000
H       -0.54333000      10.58082000       1.97327000
H        1.63318000       8.44451000       1.71264000
O        1.60579000       9.22621000       1.16208000
H        1.31645000       9.86324000       1.82689000
