6
Properties=species:S:1:pos:R:3 frame=T 11=T |=T Written=T by=T MDAnalysis=T XYZWriter=T (release=T 2.4.3)=T pbc="F F F"
H       -9.35282000      -4.86664000      17.26457000
O       -9.29027000      -3.95879000      16.94214000
H       -9.55138000      -3.46240000      17.75525000
H       -9.91320000      -6.58862000      16.68963000
O       -9.08603000      -6.45801000      17.20447000
H       -9.21343000      -6.94492000      18.00565000
