6
Properties=species:S:1:pos:R:3 frame=T 45=T |=T Written=T by=T MDAnalysis=T XYZWriter=T (release=T 2.4.3)=T pbc="F F F"
H        9.83086000       5.15173000      -4.60637000
O       10.63645000       4.64997000      -4.70287000
H       11.37336000       5.25584000      -4.68107000
H       11.32729000       3.71925000      -3.16150000
O       11.78392000       3.82851000      -2.29624000
H       12.61459000       4.22476000      -2.55739000
