6
Properties=species:S:1:pos:R:3 frame=T 54=T |=T Written=T by=T MDAnalysis=T XYZWriter=T (release=T 2.4.3)=T pbc="F F F"
H       -5.03666000      12.80754000      16.96021000
O       -5.55109000      13.19071000      17.62855000
H       -5.50780000      12.60689000      18.40079000
H       -4.81091000      15.13222000      17.67728000
O       -4.13690000      15.80024000      17.85478000
H       -3.35286000      15.25660000      18.04196000
