6
Properties=species:S:1:pos:R:3 frame=T 24=T |=T Written=T by=T MDAnalysis=T XYZWriter=T (release=T 2.4.3)=T pbc="F F F"
H       -5.46778000     -18.29968000      12.27923000
O       -5.38767000     -19.26171000      12.36640000
H       -5.59689000     -19.60204000      11.48237000
H       -4.69921000     -17.70743000      10.11546000
O       -3.85442000     -17.78856000      10.54795000
H       -3.56533000     -16.85608000      10.54508000
