6
Properties=species:S:1:pos:R:3 frame=T 54=T |=T Written=T by=T MDAnalysis=T XYZWriter=T (release=T 2.4.3)=T pbc="F F F"
H      -14.20387000     -16.16205000       0.35001000
O      -14.81250000     -16.87580000       0.07637000
H      -15.40205000     -16.94019000       0.82505000
H      -16.44917000     -14.23043000      -1.03454000
O      -16.65668000     -15.08994000      -0.64709000
H      -15.86207000     -15.64580000      -0.70042000
