6
Properties=species:S:1:pos:R:3 frame=T 31=T |=T Written=T by=T MDAnalysis=T XYZWriter=T (release=T 2.4.3)=T pbc="F F F"
H        1.35574000     -11.94957000      15.88606000
O        0.66732000     -11.39327000      16.25031000
H        0.64512000     -10.68429000      15.59177000
H        1.87013000     -11.15723000      19.51167000
O        2.29536000     -11.38262000      18.68713000
H        1.61322000     -11.14380000      18.03497000
