6
Properties=species:S:1:pos:R:3 frame=T 0=T |=T Written=T by=T MDAnalysis=T XYZWriter=T (release=T 2.4.3)=T pbc="F F F"
H        4.40187000       5.16224000       1.50178000
O        3.97622000       6.02195000       1.63709000
H        4.69866000       6.63231000       1.43575000
H        2.85461000       5.52258000       0.38209000
O        2.29568000       5.49444000      -0.38562000
H        2.84108000       5.72441000      -1.14769000
