6
Properties=species:S:1:pos:R:3 frame=T 45=T |=T Written=T by=T MDAnalysis=T XYZWriter=T (release=T 2.4.3)=T pbc="F F F"
H        5.18620000      -0.14945000      11.82701000
O        5.77809000       0.08129000      12.56883000
H        5.48388000      -0.56666000      13.23251000
H        3.03449000       1.21050000      13.88021000
O        3.79000000       1.79992000      13.98965000
H        4.44834000       1.32154000      13.46666000
