6
Properties=species:S:1:pos:R:3 frame=T 48=T |=T Written=T by=T MDAnalysis=T XYZWriter=T (release=T 2.4.3)=T pbc="F F F"
H        8.89977000      18.37822000      -6.11098000
O        8.33512000      18.36687000      -6.90875000
H        8.39814000      17.45268000      -7.21326000
H       10.89778000      17.80554000      -4.58590000
O       10.31580000      17.07590000      -4.91618000
H        9.62593000      17.00724000      -4.25657000
