6
Properties=species:S:1:pos:R:3 frame=T 35=T |=T Written=T by=T MDAnalysis=T XYZWriter=T (release=T 2.4.3)=T pbc="F F F"
H       -4.87863000     -13.56857000      -6.48174000
O       -4.85901000     -12.66648000      -6.09148000
H       -5.80748000     -12.42580000      -6.09406000
H       -8.18184000     -13.35155000      -6.64681000
O       -7.80550000     -12.66348000      -6.04877000
H       -8.30251000     -12.68870000      -5.23928000
