6
Properties=species:S:1:pos:R:3 frame=T 20=T |=T Written=T by=T MDAnalysis=T XYZWriter=T (release=T 2.4.3)=T pbc="F F F"
H      -15.85221000     -15.51912000      15.74298000
O      -15.11213000     -14.92565000      15.53329000
H      -14.58602000     -15.01045000      16.32298000
H      -17.89035000     -13.63165000      16.60143000
O      -17.21462000     -13.65041000      17.26983000
H      -16.39587000     -13.44184000      16.80376000
