6
Properties=species:S:1:pos:R:3 frame=T 33=T |=T Written=T by=T MDAnalysis=T XYZWriter=T (release=T 2.4.3)=T pbc="F F F"
H       15.25490000       5.14857000       6.66721000
O       14.33434000       4.83201000       6.42560000
H       14.21452000       5.10098000       5.51281000
H       14.32951000       3.05674000       6.55300000
O       14.59880000       2.13532000       6.67937000
H       15.30716000       2.08885000       6.03126000
