6
Properties=species:S:1:pos:R:3 frame=T 51=T |=T Written=T by=T MDAnalysis=T XYZWriter=T (release=T 2.4.3)=T pbc="F F F"
H      -12.59737000      11.02002000      -1.71002000
O      -12.89815000      11.70698000      -1.13074000
H      -13.40666000      11.19729000      -0.49137000
H      -10.87597000       9.34299000       0.53549000
O      -10.56898000       9.67141000      -0.32383000
H      -10.94696000      10.54046000      -0.40888000
