6
Properties=species:S:1:pos:R:3 frame=T 30=T |=T Written=T by=T MDAnalysis=T XYZWriter=T (release=T 2.4.3)=T pbc="F F F"
H       17.94646000     -18.60974000     -17.65207000
O       18.77204000     -18.44538000     -17.19670000
H       19.36339000     -19.02212000     -17.68309000
H       17.98470000     -15.24143000     -16.62433000
O       18.70855000     -15.71348000     -16.18129000
H       18.64904000     -16.60379000     -16.60102000
