6
Properties=species:S:1:pos:R:3 frame=T 19=T |=T Written=T by=T MDAnalysis=T XYZWriter=T (release=T 2.4.3)=T pbc="F F F"
H       14.25523000      17.87848000      -1.80337000
O       14.52143000      18.47565000      -1.10498000
H       13.73019000      18.82140000      -0.67707000
H       14.94659000      15.61750000      -3.39994000
O       14.98921000      16.44037000      -2.89663000
H       15.71102000      16.31565000      -2.23389000
