6
Properties=species:S:1:pos:R:3 frame=T 5=T |=T Written=T by=T MDAnalysis=T XYZWriter=T (release=T 2.4.3)=T pbc="F F F"
H       12.77984000       2.73629000      18.68824000
O       12.90599000       3.44211000      18.07008000
H       13.86708000       3.47668000      17.94963000
H       15.86871000       3.64823000      15.82169000
O       15.33024000       3.60207000      16.63655000
H       15.82803000       2.95029000      17.13473000
