6
Properties=species:S:1:pos:R:3 frame=T 48=T |=T Written=T by=T MDAnalysis=T XYZWriter=T (release=T 2.4.3)=T pbc="F F F"
H       -3.65682000      15.18001000      -5.32535000
O       -4.25493000      14.94376000      -6.02528000
H       -3.63347000      14.54662000      -6.69364000
H       -1.99825000      16.07742000      -3.82016000
O       -2.03260000      15.54261000      -4.62850000
H       -1.76656000      16.15939000      -5.35903000
