6
Properties=species:S:1:pos:R:3 frame=T 8=T |=T Written=T by=T MDAnalysis=T XYZWriter=T (release=T 2.4.3)=T pbc="F F F"
H       -3.23896000     -11.61420000      15.25617000
O       -2.84162000     -11.46726000      16.14937000
H       -3.56684000     -11.10623000      16.66946000
H       -3.84281000     -12.03628000      12.62799000
O       -3.92988000     -12.12889000      13.59926000
H       -4.63169000     -12.78203000      13.72344000
