6
Properties=species:S:1:pos:R:3 frame=T 11=T |=T Written=T by=T MDAnalysis=T XYZWriter=T (release=T 2.4.3)=T pbc="F F F"
H        0.85168000       2.53951000     -12.49005000
O        1.54660000       1.88304000     -12.62949000
H        2.32953000       2.41883000     -12.53476000
H        4.11978000       3.27863000     -12.28584000
O        4.09845000       2.41658000     -12.71978000
H        4.21365000       1.84584000     -11.95479000
