6
Properties=species:S:1:pos:R:3 frame=T 31=T |=T Written=T by=T MDAnalysis=T XYZWriter=T (release=T 2.4.3)=T pbc="F F F"
H        0.92172000      -9.48127000      13.38609000
O        0.88046000      -9.53583000      14.34749000
H        0.13706000      -8.93776000      14.49176000
H        1.47913000      -7.39782000      11.66982000
O        0.73175000      -7.84926000      12.08696000
H        0.13661000      -7.92971000      11.32715000
