6
Properties=species:S:1:pos:R:3 frame=T 49=T |=T Written=T by=T MDAnalysis=T XYZWriter=T (release=T 2.4.3)=T pbc="F F F"
H       -7.41661000       9.25146000      18.94760000
O       -8.29378000       9.30626000      18.52871000
H       -8.82863000       9.86985000      19.10039000
H       -8.28870000      10.77488000      17.25676000
O       -8.35418000      11.67674000      16.94372000
H       -9.11070000      12.00814000      17.44160000
