6
Properties=species:S:1:pos:R:3 frame=T 44=T |=T Written=T by=T MDAnalysis=T XYZWriter=T (release=T 2.4.3)=T pbc="F F F"
H        9.84816000      15.52392000       8.58416000
O        9.61764000      14.78683000       9.18147000
H        8.94884000      15.18675000       9.77959000
H       11.68075000      14.64623000       8.95960000
O       12.52190000      14.26371000       9.19076000
H       12.92489000      14.11269000       8.34213000
