6
Properties=species:S:1:pos:R:3 frame=T 34=T |=T Written=T by=T MDAnalysis=T XYZWriter=T (release=T 2.4.3)=T pbc="F F F"
H      -17.69188000      13.25247000      -0.69095000
O      -16.74200000      13.16775000      -0.44713000
H      -16.69409000      12.40948000       0.12552000
H      -17.26993000      12.02839000      -3.28897000
O      -16.35956000      12.09121000      -3.05883000
H      -16.41657000      12.41691000      -2.14308000
