6
Properties=species:S:1:pos:R:3 frame=T 23=T |=T Written=T by=T MDAnalysis=T XYZWriter=T (release=T 2.4.3)=T pbc="F F F"
H       -8.50815000     -14.15942000      13.66390000
O       -9.36672000     -13.72701000      13.83720000
H       -9.57649000     -13.32611000      12.97379000
H       -7.09429000     -14.68740000      15.46958000
O       -7.00746000     -14.95389000      14.54688000
H       -6.64900000     -15.84609000      14.62941000
