6
Properties=species:S:1:pos:R:3 frame=T 25=T |=T Written=T by=T MDAnalysis=T XYZWriter=T (release=T 2.4.3)=T pbc="F F F"
H      -15.37709000      11.52931000     -12.36703000
O      -14.51295000      11.14744000     -12.30293000
H      -13.97389000      11.75453000     -12.83873000
H      -17.84726000      11.71882000     -11.88566000
O      -17.06413000      11.61861000     -12.44441000
H      -16.88424000      10.66634000     -12.53719000
