6
Properties=species:S:1:pos:R:3 frame=T 2=T |=T Written=T by=T MDAnalysis=T XYZWriter=T (release=T 2.4.3)=T pbc="F F F"
H       15.38209000      -8.82589000      14.81048000
O       14.51573000      -9.09150000      15.11637000
H       14.02041000      -9.37832000      14.34006000
H       15.38766000      -6.38891000      16.37892000
O       14.92531000      -6.37961000      15.52250000
H       14.69134000      -7.30365000      15.32306000
