6
Properties=species:S:1:pos:R:3 frame=T 47=T |=T Written=T by=T MDAnalysis=T XYZWriter=T (release=T 2.4.3)=T pbc="F F F"
H       -8.07747000      -0.34543000      -9.49586000
O       -8.96215000      -0.65713000      -9.33074000
H       -9.03936000      -0.75231000      -8.39595000
H       -9.04000000      -2.26685000     -10.43934000
O       -9.58946000      -3.05916000     -10.48206000
H       -9.86718000      -3.22267000      -9.57621000
