6
Properties=species:S:1:pos:R:3 frame=T 27=T |=T Written=T by=T MDAnalysis=T XYZWriter=T (release=T 2.4.3)=T pbc="F F F"
H        4.46193000     -18.38556000      12.53042000
O        4.07279000     -17.50961000      12.36978000
H        4.36422000     -17.00752000      13.15014000
H        4.79642000     -16.03499000      15.29508000
O        4.15117000     -15.73460000      14.62896000
H        3.56235000     -16.48128000      14.55235000
