6
Properties=species:S:1:pos:R:3 frame=T 52=T |=T Written=T by=T MDAnalysis=T XYZWriter=T (release=T 2.4.3)=T pbc="F F F"
H        2.75457000      -9.43616000      17.33314000
O        2.46249000     -10.10358000      17.98474000
H        1.84247000      -9.64846000      18.58580000
H        4.07814000     -10.26622000      18.42932000
O        4.98895000     -10.58536000      18.50133000
H        5.48813000     -10.22814000      17.79237000
