6
Properties=species:S:1:pos:R:3 frame=T 47=T |=T Written=T by=T MDAnalysis=T XYZWriter=T (release=T 2.4.3)=T pbc="F F F"
H        0.82319000      -5.64380000      15.02763000
O        0.84118000      -6.18186000      14.23780000
H        1.78452000      -6.24102000      14.02026000
H        0.31586000      -4.08940000      16.71088000
O        0.90314000      -4.83893000      16.72299000
H        1.30865000      -4.74477000      17.59514000
