6
Properties=species:S:1:pos:R:3 frame=T 43=T |=T Written=T by=T MDAnalysis=T XYZWriter=T (release=T 2.4.3)=T pbc="F F F"
H       18.88268000      11.27761000      12.49366000
O       19.11133000      10.46858000      12.92245000
H       18.65237000      10.46551000      13.76956000
H       15.84055000      10.01808000      12.36623000
O       16.45249000       9.37614000      11.96768000
H       17.27601000       9.59230000      12.35672000
