6
Properties=species:S:1:pos:R:3 frame=T 50=T |=T Written=T by=T MDAnalysis=T XYZWriter=T (release=T 2.4.3)=T pbc="F F F"
H       -7.03971000      11.31806000      12.65831000
O       -6.35644000      11.99943000      12.67623000
H       -5.91541000      11.81072000      13.52051000
H       -4.45902000       9.05319000      13.11054000
O       -5.32002000       9.35137000      12.77581000
H       -5.13901000      10.20388000      12.32209000
