6
Properties=species:S:1:pos:R:3 frame=T 14=T |=T Written=T by=T MDAnalysis=T XYZWriter=T (release=T 2.4.3)=T pbc="F F F"
H        6.95729000      -8.50956000       5.43746000
O        6.32915000      -8.17207000       6.10208000
H        6.84912000      -8.14569000       6.90388000
H        5.78064000      -6.24563000       4.07777000
O        5.32197000      -6.10262000       4.90060000
H        5.62555000      -6.86527000       5.40120000
