6
Properties=species:S:1:pos:R:3 frame=T 54=T |=T Written=T by=T MDAnalysis=T XYZWriter=T (release=T 2.4.3)=T pbc="F F F"
H      -11.03997000      -7.63457000      11.19025000
O      -11.45154000      -6.77455000      11.13399000
H      -10.83588000      -6.20912000      11.61796000
H      -11.80132000      -9.77657000      11.94448000
O      -11.22349000      -9.67683000      11.17322000
H      -10.47765000      -9.17538000      11.51605000
