6
Properties=species:S:1:pos:R:3 frame=T 52=T |=T Written=T by=T MDAnalysis=T XYZWriter=T (release=T 2.4.3)=T pbc="F F F"
H        8.11267000      14.28810000      -0.98764000
O        8.55576000      13.43883000      -1.06219000
H        9.16754000      13.59335000      -1.78445000
H        5.20083000      14.39928000      -1.76213000
O        6.14594000      14.31194000      -1.84811000
H        6.19475000      13.75173000      -2.64499000
