6
Properties=species:S:1:pos:R:3 frame=T 37=T |=T Written=T by=T MDAnalysis=T XYZWriter=T (release=T 2.4.3)=T pbc="F F F"
H        9.76715000       4.95832000       8.00612000
O        9.47402000       4.12809000       7.57331000
H       10.11295000       3.53954000       7.95795000
H        7.51489000       2.42533000      10.28758000
O        7.49588000       2.62382000       9.32977000
H        8.28308000       3.08788000       9.08163000
