6
Properties=species:S:1:pos:R:3 frame=T 41=T |=T Written=T by=T MDAnalysis=T XYZWriter=T (release=T 2.4.3)=T pbc="F F F"
H        2.36670000      -3.81089000      12.26244000
O        1.40777000      -3.57920000      12.24487000
H        1.02276000      -4.23915000      12.86580000
H        2.78283000      -1.63627000      14.53455000
O        1.87830000      -1.74499000      14.19722000
H        1.93183000      -2.52121000      13.64618000
