6
Properties=species:S:1:pos:R:3 frame=T 17=T |=T Written=T by=T MDAnalysis=T XYZWriter=T (release=T 2.4.3)=T pbc="F F F"
H        4.40251000      16.18165000      -7.96387000
O        3.75459000      16.74822000      -7.49148000
H        4.27216000      17.24364000      -6.87886000
H        2.78959000      18.75274000      -9.26409000
O        3.54920000      18.32776000      -9.68824000
H        3.50273000      17.40870000      -9.37494000
