6
Properties=species:S:1:pos:R:3 frame=T 33=T |=T Written=T by=T MDAnalysis=T XYZWriter=T (release=T 2.4.3)=T pbc="F F F"
H       -1.52009000      17.57441000      -2.75132000
O       -1.92921000      16.70286000      -2.56735000
H       -2.05558000      16.71474000      -1.60235000
H       -1.92225000      16.44880000       0.37665000
O       -1.48891000      15.63810000       0.07466000
H       -0.60115000      15.90534000      -0.18684000
