6
Properties=species:S:1:pos:R:3 frame=T 10=T |=T Written=T by=T MDAnalysis=T XYZWriter=T (release=T 2.4.3)=T pbc="F F F"
H       10.51786000     -13.85205000     -19.30863000
O       10.08860000     -14.42195000     -18.67153000
H        9.24721000     -13.94997000     -18.50050000
H       11.06797000     -14.51606000     -17.38535000
O       11.61631000     -14.54503000     -16.55103000
H       11.26346000     -13.78141000     -16.04854000
