6
Properties=species:S:1:pos:R:3 frame=T 4=T |=T Written=T by=T MDAnalysis=T XYZWriter=T (release=T 2.4.3)=T pbc="F F F"
H      -16.24424000      15.46231000      -9.00075000
O      -16.78700000      16.02229000      -9.57458000
H      -16.88342000      15.55595000     -10.42065000
H      -16.53441000      13.49712000      -8.70233000
O      -16.63610000      12.90345000      -9.41946000
H      -16.86881000      13.47780000     -10.15096000
