6
Properties=species:S:1:pos:R:3 frame=T 50=T |=T Written=T by=T MDAnalysis=T XYZWriter=T (release=T 2.4.3)=T pbc="F F F"
H       17.10713000     -13.46110000     -12.59097000
O       16.36775000     -13.65636000     -12.00679000
H       15.64767000     -14.02264000     -12.55264000
H       12.40127000     -14.08818000     -13.50985000
O       13.24826000     -13.58313000     -13.65936000
H       13.87973000     -14.29408000     -13.72913000
