6
Properties=species:S:1:pos:R:3 frame=T 19=T |=T Written=T by=T MDAnalysis=T XYZWriter=T (release=T 2.4.3)=T pbc="F F F"
H       19.37945000      17.20600000      -3.67542000
O       19.10624000      17.42749000      -4.57817000
H       18.18900000      17.72330000      -4.47112000
H       19.04797000      13.68147000      -3.84866000
O       18.32773000      14.11805000      -3.37458000
H       18.08188000      14.87844000      -3.90895000
