6
Properties=species:S:1:pos:R:3 frame=T 41=T |=T Written=T by=T MDAnalysis=T XYZWriter=T (release=T 2.4.3)=T pbc="F F F"
H      -15.95088000      -1.35083000      16.52272000
O      -15.91899000      -2.07348000      15.88912000
H      -16.85583000      -2.30820000      15.88635000
H      -17.87968000      -3.22133000      18.37347000
O      -18.58658000      -2.62771000      18.63347000
H      -18.86908000      -2.21903000      17.80846000
