6
Properties=species:S:1:pos:R:3 frame=T 7=T |=T Written=T by=T MDAnalysis=T XYZWriter=T (release=T 2.4.3)=T pbc="F F F"
H       19.23276000     -11.44553000      15.17846000
O       18.72395000     -12.26358000      15.08786000
H       18.65324000     -12.55018000      15.98615000
H       16.15099000     -11.82180000      15.44319000
O       15.34248000     -11.49627000      15.86428000
H       15.28462000     -11.92758000      16.74791000
