6
Properties=species:S:1:pos:R:3 frame=T 24=T |=T Written=T by=T MDAnalysis=T XYZWriter=T (release=T 2.4.3)=T pbc="F F F"
H       -4.77009000      -0.69225000       7.01098000
O       -4.01275000      -0.22094000       6.64874000
H       -3.25743000      -0.65945000       7.03427000
H       -3.65881000      -1.25912000       5.45422000
O       -3.72970000      -1.97467000       4.80332000
H       -4.51029000      -2.41053000       5.09978000
