6
Properties=species:S:1:pos:R:3 frame=T 4=T |=T Written=T by=T MDAnalysis=T XYZWriter=T (release=T 2.4.3)=T pbc="F F F"
H       -3.41222000     -16.03213000      -8.03272000
O       -3.08206000     -16.16743000      -8.93095000
H       -3.77424000     -16.72659000      -9.27696000
H       -1.50950000     -18.61846000      -7.74681000
O       -0.91543000     -17.86340000      -7.56866000
H       -1.38804000     -17.11366000      -7.93206000
