6
Properties=species:S:1:pos:R:3 frame=T 48=T |=T Written=T by=T MDAnalysis=T XYZWriter=T (release=T 2.4.3)=T pbc="F F F"
H        5.76104000      -9.91572000      -1.50258000
O        6.29664000      -9.77941000      -0.71737000
H        5.83181000     -10.36217000      -0.10132000
H        8.10966000      -9.81612000      -0.34063000
O        8.75019000      -9.24492000       0.09388000
H        9.50373000      -9.82916000       0.26252000
