6
Properties=species:S:1:pos:R:3 frame=T 5=T |=T Written=T by=T MDAnalysis=T XYZWriter=T (release=T 2.4.3)=T pbc="F F F"
H        1.09647000     -14.66636000       9.83491000
O        2.05460000     -14.52050000       9.76072000
H        2.37297000     -15.44707000       9.75761000
H        0.74687000     -17.72966000       9.94939000
O        1.65633000     -17.35892000      10.05570000
H        2.21773000     -18.07192000       9.66714000
