6
Properties=species:S:1:pos:R:3 frame=T 48=T |=T Written=T by=T MDAnalysis=T XYZWriter=T (release=T 2.4.3)=T pbc="F F F"
H       18.92377000       3.38450000       6.70948000
O       18.12280000       3.89601000       6.85124000
H       18.47715000       4.74685000       7.10289000
H       18.19531000       6.97326000       8.10320000
O       18.87007000       6.43156000       7.67584000
H       19.43404000       7.11560000       7.42158000
