6
Properties=species:S:1:pos:R:3 frame=T 8=T |=T Written=T by=T MDAnalysis=T XYZWriter=T (release=T 2.4.3)=T pbc="F F F"
H      -15.85223000       6.21602000      13.18368000
O      -16.79683000       6.36097000      13.24943000
H      -16.89293000       6.73411000      14.11478000
H      -14.71430000       4.65537000      11.75424000
O      -14.67256000       5.59655000      11.99979000
H      -15.34813000       5.98803000      11.42162000
