6
Properties=species:S:1:pos:R:3 frame=T 27=T |=T Written=T by=T MDAnalysis=T XYZWriter=T (release=T 2.4.3)=T pbc="F F F"
H      -15.13867000     -14.76545000      16.09116000
O      -14.33960000     -15.27163000      16.21273000
H      -13.98456000     -14.97393000      17.07662000
H      -17.10144000     -12.90090000      16.92622000
O      -16.23643000     -13.03565000      16.48960000
H      -16.41243000     -12.79530000      15.57274000
