6
Properties=species:S:1:pos:R:3 frame=T 43=T |=T Written=T by=T MDAnalysis=T XYZWriter=T (release=T 2.4.3)=T pbc="F F F"
H       11.04750000     -11.63191000       7.16107000
O       10.64019000     -10.88903000       7.61522000
H       11.16432000     -10.81412000       8.44287000
H        9.43743000     -12.26389000       7.52271000
O        8.72908000     -12.90223000       7.57524000
H        8.96712000     -13.49406000       6.83473000
