6
Properties=species:S:1:pos:R:3 frame=T 51=T |=T Written=T by=T MDAnalysis=T XYZWriter=T (release=T 2.4.3)=T pbc="F F F"
H       -1.49408000       9.79180000       7.53097000
O       -1.23941000      10.70193000       7.65806000
H       -0.93610000      10.70694000       8.59229000
H        0.25107000      10.30404000      11.02521000
O       -0.39957000      10.03307000      10.38204000
H       -1.09641000       9.65512000      10.93753000
