6
Properties=species:S:1:pos:R:3 frame=T 30=T |=T Written=T by=T MDAnalysis=T XYZWriter=T (release=T 2.4.3)=T pbc="F F F"
H        5.44735000     -12.57398000       5.04034000
O        4.70832000     -12.01424000       4.79774000
H        5.01228000     -11.49650000       4.04877000
H        7.12381000     -14.05621000       4.22233000
O        6.78791000     -14.47479000       5.02449000
H        5.97744000     -14.90163000       4.71821000
