6
Properties=species:S:1:pos:R:3 frame=T 12=T |=T Written=T by=T MDAnalysis=T XYZWriter=T (release=T 2.4.3)=T pbc="F F F"
H      -14.48204000     -11.71867000      -5.32058000
O      -14.27203000     -10.91878000      -4.79465000
H      -15.07308000     -10.78407000      -4.32864000
H      -16.29604000     -12.52030000      -5.93200000
O      -15.47006000     -12.88520000      -6.25701000
H      -15.57998000     -12.91115000      -7.21343000
