6
Properties=species:S:1:pos:R:3 frame=T 29=T |=T Written=T by=T MDAnalysis=T XYZWriter=T (release=T 2.4.3)=T pbc="F F F"
H       -7.03963000      15.73625000      -4.49741000
O       -7.76297000      16.34491000      -4.31275000
H       -7.61464000      16.96624000      -5.05257000
H       -5.61141000      15.19184000      -6.03946000
O       -5.61119000      14.74615000      -5.19012000
H       -6.03944000      13.90984000      -5.43052000
