6
Properties=species:S:1:pos:R:3 frame=T 28=T |=T Written=T by=T MDAnalysis=T XYZWriter=T (release=T 2.4.3)=T pbc="F F F"
H       15.11947000       4.27291000      -4.56117000
O       15.48078000       3.86510000      -3.75097000
H       15.80626000       3.02638000      -4.07899000
H       14.79859000       5.18709000      -6.31737000
O       13.90021000       4.99074000      -5.94505000
H       13.70432000       4.09501000      -6.25151000
