6
Properties=species:S:1:pos:R:3 frame=T 16=T |=T Written=T by=T MDAnalysis=T XYZWriter=T (release=T 2.4.3)=T pbc="F F F"
H      -16.40012000       8.09627000       4.00383000
O      -16.56285000       7.95925000       4.95751000
H      -16.74369000       8.84451000       5.30367000
H      -18.41511000       8.53236000       2.49286000
O      -17.71192000       7.91857000       2.22300000
H      -17.21399000       8.47469000       1.62856000
