6
Properties=species:S:1:pos:R:3 frame=T 17=T |=T Written=T by=T MDAnalysis=T XYZWriter=T (release=T 2.4.3)=T pbc="F F F"
H        7.97664000       1.02860000       8.81741000
O        8.44842000       0.52522000       9.53407000
H        8.85702000      -0.21768000       9.03573000
H       10.18507000       0.09971000       9.77055000
O       10.94388000      -0.19391000      10.26409000
H       11.56920000       0.56405000      10.27366000
