6
Properties=species:S:1:pos:R:3 frame=T 43=T |=T Written=T by=T MDAnalysis=T XYZWriter=T (release=T 2.4.3)=T pbc="F F F"
H       -3.48105000     -13.86210000      -4.09941000
O       -3.25756000     -14.63481000      -3.57132000
H       -2.46103000     -14.37574000      -3.09678000
H       -3.96132000     -12.84175000      -2.20197000
O       -4.36170000     -12.18719000      -1.63919000
H       -4.68184000     -11.47804000      -2.24968000
