6
Properties=species:S:1:pos:R:3 frame=T 41=T |=T Written=T by=T MDAnalysis=T XYZWriter=T (release=T 2.4.3)=T pbc="F F F"
H      -15.99405000       9.18333000     -13.67295000
O      -15.23300000       9.76410000     -13.74206000
H      -15.49070000      10.44324000     -13.12404000
H      -17.99466000      11.73201000     -12.89369000
O      -17.03472000      11.77590000     -12.92647000
H      -16.89377000      12.49220000     -12.26923000
