6
Properties=species:S:1:pos:R:3 frame=T 7=T |=T Written=T by=T MDAnalysis=T XYZWriter=T (release=T 2.4.3)=T pbc="F F F"
H       12.96760000      -7.82793000      14.05249000
O       13.32326000      -7.15419000      13.45849000
H       13.30400000      -6.38304000      14.03737000
H       12.26952000      -4.42685000      14.65141000
O       12.24749000      -5.28038000      15.10406000
H       11.35621000      -5.60586000      14.99938000
