6
Properties=species:S:1:pos:R:3 frame=T 47=T |=T Written=T by=T MDAnalysis=T XYZWriter=T (release=T 2.4.3)=T pbc="F F F"
H       13.65362000     -12.47857000      -7.30860000
O       14.50542000     -12.92702000      -7.28799000
H       14.61301000     -13.01038000      -6.31021000
H       12.43977000     -10.80601000      -6.65146000
O       12.15958000     -11.73320000      -6.69656000
H       11.72640000     -11.83795000      -5.86405000
