6
Properties=species:S:1:pos:R:3 frame=T 52=T |=T Written=T by=T MDAnalysis=T XYZWriter=T (release=T 2.4.3)=T pbc="F F F"
H       18.49337000      19.47040000      -5.56098000
O       17.97938000      19.00723000      -6.27488000
H       18.32426000      18.12816000      -6.25512000
H       16.16477000      18.97329000      -5.04894000
O       15.45398000      18.73923000      -4.46852000
H       15.37745000      17.80297000      -4.67607000
