6
Properties=species:S:1:pos:R:3 frame=T 26=T |=T Written=T by=T MDAnalysis=T XYZWriter=T (release=T 2.4.3)=T pbc="F F F"
H      -16.75023000     -12.59649000      14.43134000
O      -16.08456000     -12.39995000      13.78335000
H      -15.52304000     -13.15062000      13.76728000
H      -15.67206000     -11.32153000      11.57862000
O      -16.54777000     -10.92241000      11.44906000
H      -17.04343000     -11.38183000      12.14253000
