6
Properties=species:S:1:pos:R:3 frame=T 20=T |=T Written=T by=T MDAnalysis=T XYZWriter=T (release=T 2.4.3)=T pbc="F F F"
H       15.51795000      -4.07517000       6.50511000
O       14.74173000      -3.75140000       6.02431000
H       14.36456000      -3.08422000       6.60168000
H       12.67209000      -0.98849000       6.81745000
O       13.52753000      -1.45926000       6.82691000
H       14.18627000      -0.72744000       6.94427000
