6
Properties=species:S:1:pos:R:3 frame=T 20=T |=T Written=T by=T MDAnalysis=T XYZWriter=T (release=T 2.4.3)=T pbc="F F F"
H       -1.25345000       5.17023000      -5.17630000
O       -1.30748000       5.62482000      -4.30312000
H       -2.21130000       5.51082000      -4.05369000
H        0.50219000       6.27013000      -5.06144000
O        0.59241000       6.01226000      -6.01216000
H        1.49434000       6.24784000      -6.25102000
