6
Properties=species:S:1:pos:R:3 frame=T 11=T |=T Written=T by=T MDAnalysis=T XYZWriter=T (release=T 2.4.3)=T pbc="F F F"
H        5.65976000       4.07041000      -4.43514000
O        6.24064000       3.30043000      -4.57933000
H        5.72707000       2.60424000      -4.96589000
H        8.99485000       1.86825000      -4.46978000
O        8.70765000       2.26423000      -3.62336000
H        8.02634000       2.88256000      -3.86553000
