6
Properties=species:S:1:pos:R:3 frame=T 14=T |=T Written=T by=T MDAnalysis=T XYZWriter=T (release=T 2.4.3)=T pbc="F F F"
H        4.06610000       7.68781000      10.40502000
O        4.79957000       7.06406000      10.49125000
H        4.34117000       6.23744000      10.73278000
H        4.75158000       9.59153000       9.60364000
O        3.83243000       9.37795000       9.57832000
H        3.39972000      10.09624000       9.10401000
