6
Properties=species:S:1:pos:R:3 frame=T 6=T |=T Written=T by=T MDAnalysis=T XYZWriter=T (release=T 2.4.3)=T pbc="F F F"
H       13.56815000      -5.83218000     -14.07447000
O       12.79127000      -5.28265000     -14.33480000
H       13.02675000      -4.41538000     -13.95060000
H       11.55799000      -3.90733000     -12.44587000
O       11.39881000      -3.21222000     -13.10872000
H       10.89411000      -3.63767000     -13.83057000
