6
Properties=species:S:1:pos:R:3 frame=T 26=T |=T Written=T by=T MDAnalysis=T XYZWriter=T (release=T 2.4.3)=T pbc="F F F"
H       11.14700000     -15.29701000      -8.32122000
O       10.38342000     -15.74773000      -8.71458000
H        9.61944000     -15.53402000      -8.12991000
H       12.17404000     -13.84940000      -7.36068000
O       12.24073000     -14.56085000      -6.74860000
H       12.93241000     -15.10084000      -7.16667000
