6
Properties=species:S:1:pos:R:3 frame=T 6=T |=T Written=T by=T MDAnalysis=T XYZWriter=T (release=T 2.4.3)=T pbc="F F F"
H        4.20795000      11.54073000      -7.67641000
O        3.31799000      11.38042000      -8.02734000
H        2.86238000      12.23149000      -7.92144000
H        6.72565000      11.12158000      -7.08987000
O        5.90916000      10.91647000      -7.55909000
H        6.19516000      10.40605000      -8.33126000
