6
Properties=species:S:1:pos:R:3 frame=T 37=T |=T Written=T by=T MDAnalysis=T XYZWriter=T (release=T 2.4.3)=T pbc="F F F"
H        9.34049000       4.59778000      -3.19737000
O        9.19250000       3.70113000      -3.46317000
H        8.34274000       3.75855000      -3.92017000
H        8.98397000       5.50866000      -1.33079000
O        9.85153000       5.20319000      -1.04031000
H       10.44032000       5.43397000      -1.74533000
