6
Properties=species:S:1:pos:R:3 frame=T 32=T |=T Written=T by=T MDAnalysis=T XYZWriter=T (release=T 2.4.3)=T pbc="F F F"
H        4.63155000       5.22129000       4.15366000
O        3.87865000       5.60535000       4.60754000
H        3.16957000       4.96164000       4.40831000
H        3.55921000       7.27362000       3.41619000
O        3.52286000       8.17772000       3.10549000
H        2.98926000       8.07524000       2.30311000
