6
Properties=species:S:1:pos:R:3 frame=T 3=T |=T Written=T by=T MDAnalysis=T XYZWriter=T (release=T 2.4.3)=T pbc="F F F"
H       13.90703000     -13.29295000      15.62488000
O       13.88701000     -13.32568000      14.64000000
H       13.05562000     -13.78257000      14.43890000
H       13.46151000     -11.45548000      13.86781000
O       13.61495000     -10.61310000      13.44956000
H       12.71003000     -10.28007000      13.40526000
