6
Properties=species:S:1:pos:R:3 frame=T 48=T |=T Written=T by=T MDAnalysis=T XYZWriter=T (release=T 2.4.3)=T pbc="F F F"
H        7.66423000      -5.15090000     -18.58350000
O        8.18911000      -5.94364000     -18.51021000
H        8.26165000      -6.12975000     -17.59337000
H        6.30459000      -6.35958000     -18.49900000
O        5.47934000      -6.63976000     -18.91522000
H        5.03086000      -7.11389000     -18.18370000
