6
Properties=species:S:1:pos:R:3 frame=T 32=T |=T Written=T by=T MDAnalysis=T XYZWriter=T (release=T 2.4.3)=T pbc="F F F"
H        5.79515000       9.91666000      18.59193000
O        5.39909000      10.30480000      17.79520000
H        5.87474000       9.79450000      17.12632000
H        5.56235000       7.87300000      16.24919000
O        5.77283000       8.57357000      15.66397000
H        4.90154000       8.84058000      15.43517000
