6
Properties=species:S:1:pos:R:3 frame=T 43=T |=T Written=T by=T MDAnalysis=T XYZWriter=T (release=T 2.4.3)=T pbc="F F F"
H        8.73393000      10.57818000      -8.43025000
O        7.77175000      10.74661000      -8.26304000
H        7.80172000      11.08421000      -7.37039000
H        7.85465000      11.71828000      -9.63828000
O        8.14724000      12.29745000     -10.38298000
H        7.86858000      11.72098000     -11.11378000
