6
Properties=species:S:1:pos:R:3 frame=T 43=T |=T Written=T by=T MDAnalysis=T XYZWriter=T (release=T 2.4.3)=T pbc="F F F"
H       17.11164000      -3.31692000      16.42540000
O       17.37718000      -3.13194000      15.50925000
H       17.98556000      -3.83537000      15.29519000
H       16.77844000      -5.69110000      14.00205000
O       17.66177000      -5.67834000      13.58825000
H       18.19909000      -5.30161000      14.30318000
