6
Properties=species:S:1:pos:R:3 frame=T 23=T |=T Written=T by=T MDAnalysis=T XYZWriter=T (release=T 2.4.3)=T pbc="F F F"
H       -2.51988000      12.93153000       1.78305000
O       -2.15664000      13.37544000       1.00786000
H       -1.91259000      12.67748000       0.40574000
H       -2.17119000      15.21297000       0.39462000
O       -1.90565000      16.13538000       0.28101000
H       -1.13283000      16.20119000       0.83609000
