6
Properties=species:S:1:pos:R:3 frame=T 3=T |=T Written=T by=T MDAnalysis=T XYZWriter=T (release=T 2.4.3)=T pbc="F F F"
H        0.76793000       3.25656000     -17.06385000
O        0.39902000       2.41592000     -17.38754000
H        0.49376000       1.82733000     -16.63294000
H        0.05902000       1.87756000     -14.11964000
O        0.83859000       2.05361000     -14.64905000
H        1.15331000       2.84172000     -14.22861000
