6
Properties=species:S:1:pos:R:3 frame=T 32=T |=T Written=T by=T MDAnalysis=T XYZWriter=T (release=T 2.4.3)=T pbc="F F F"
H       -6.79350000       0.65738000       6.76562000
O       -6.26869000       0.48624000       7.55679000
H       -5.39032000       0.24685000       7.19922000
H       -8.36398000      -0.74713000       9.90022000
O       -7.55598000      -0.94684000       9.41151000
H       -7.31954000      -0.11575000       8.95762000
