6
Properties=species:S:1:pos:R:3 frame=T 10=T |=T Written=T by=T MDAnalysis=T XYZWriter=T (release=T 2.4.3)=T pbc="F F F"
H        4.43225000      13.45326000       4.80487000
O        4.08867000      12.68383000       4.36181000
H        3.13561000      12.83240000       4.42118000
H        6.41310000      15.56904000       4.80995000
O        5.79741000      14.84120000       4.83525000
H        6.35519000      14.08799000       5.06902000
