6
Properties=species:S:1:pos:R:3 frame=T 20=T |=T Written=T by=T MDAnalysis=T XYZWriter=T (release=T 2.4.3)=T pbc="F F F"
H      -10.28825000      -2.29453000      16.21162000
O       -9.97088000      -1.42274000      16.02724000
H       -9.51561000      -1.10512000      16.82699000
H      -11.55334000      -0.88785000      16.78065000
O      -12.28222000      -0.93045000      17.41405000
H      -12.70891000      -0.05565000      17.34162000
