6
Properties=species:S:1:pos:R:3 frame=T 54=T |=T Written=T by=T MDAnalysis=T XYZWriter=T (release=T 2.4.3)=T pbc="F F F"
H       -3.17107000     -15.24419000      -3.91505000
O       -3.35936000     -16.13240000      -3.60657000
H       -3.28670000     -16.69339000      -4.40428000
H       -3.92423000     -15.04369000      -2.28688000
O       -3.99650000     -14.20569000      -1.80052000
H       -4.51290000     -14.40446000      -1.02360000
