6
Properties=species:S:1:pos:R:3 frame=T 0=T |=T Written=T by=T MDAnalysis=T XYZWriter=T (release=T 2.4.3)=T pbc="F F F"
H      -13.37620000      -2.25048000      17.18382000
O      -13.81270000      -2.68184000      16.41321000
H      -14.47504000      -3.19850000      16.79079000
H      -15.05670000      -1.88953000      15.05792000
O      -15.86362000      -1.63482000      14.63120000
H      -15.56017000      -1.26149000      13.78764000
