6
Properties=species:S:1:pos:R:3 frame=T 13=T |=T Written=T by=T MDAnalysis=T XYZWriter=T (release=T 2.4.3)=T pbc="F F F"
H        2.90708000      -2.32553000      -7.47633000
O        2.55861000      -1.49207000      -7.16337000
H        1.74937000      -1.71138000      -6.70436000
H        2.21771000      -0.79706000      -9.18700000
O        1.82223000      -0.16648000      -9.79393000
H        1.36572000       0.50219000      -9.28621000
