6
Properties=species:S:1:pos:R:3 frame=T 26=T |=T Written=T by=T MDAnalysis=T XYZWriter=T (release=T 2.4.3)=T pbc="F F F"
H       -8.29078000      14.18987000      -1.13486000
O       -7.76366000      14.76601000      -0.57995000
H       -6.85305000      14.55360000      -0.84529000
H       -4.78858000      14.48242000      -0.41458000
O       -5.30007000      13.91493000      -1.01201000
H       -5.14738000      14.31489000      -1.86459000
