6
Properties=species:S:1:pos:R:3 frame=T 28=T |=T Written=T by=T MDAnalysis=T XYZWriter=T (release=T 2.4.3)=T pbc="F F F"
H      -16.14053000       8.67927000      -0.80873000
O      -15.75440000       9.18032000      -1.53585000
H      -14.86743000       8.77200000      -1.72255000
H      -17.86974000       7.91002000      -1.25534000
O      -18.05520000       7.87611000      -0.30297000
H      -17.45139000       7.18341000      -0.05156000
