6
Properties=species:S:1:pos:R:3 frame=T 49=T |=T Written=T by=T MDAnalysis=T XYZWriter=T (release=T 2.4.3)=T pbc="F F F"
H      -12.67903000     -13.54509000      11.91123000
O      -13.19621000     -12.91568000      11.40208000
H      -12.68518000     -12.86003000      10.60890000
H      -10.93284000     -13.67784000      12.40063000
O      -11.33793000     -14.52265000      12.60526000
H      -10.91635000     -14.86998000      13.40216000
