6
Properties=species:S:1:pos:R:3 frame=T 23=T |=T Written=T by=T MDAnalysis=T XYZWriter=T (release=T 2.4.3)=T pbc="F F F"
H      -17.12306000       4.53364000      14.60450000
O      -16.34798000       4.96817000      14.23892000
H      -16.69922000       5.51531000      13.54719000
H      -18.75916000       4.70696000      16.76176000
O      -18.51735000       3.85529000      16.36060000
H      -18.94424000       3.17015000      16.94155000
