6
Properties=species:S:1:pos:R:3 frame=T 8=T |=T Written=T by=T MDAnalysis=T XYZWriter=T (release=T 2.4.3)=T pbc="F F F"
H      -13.21896000       0.56891000      16.56796000
O      -13.15204000      -0.33658000      16.26066000
H      -13.70736000      -0.77397000      16.90469000
H      -13.56718000       0.68104000      18.87049000
O      -14.39211000       0.21034000      18.68960000
H      -14.92121000       0.84046000      18.15774000
