6
Properties=species:S:1:pos:R:3 frame=T 39=T |=T Written=T by=T MDAnalysis=T XYZWriter=T (release=T 2.4.3)=T pbc="F F F"
H       -7.38671000     -16.25632000      13.50105000
O       -6.91414000     -15.50275000      13.11410000
H       -6.33480000     -15.26714000      13.86405000
H       -7.26600000     -16.14698000      15.95337000
O       -8.09478000     -16.35084000      15.51542000
H       -8.38039000     -15.47111000      15.18399000
