6
Properties=species:S:1:pos:R:3 frame=T 35=T |=T Written=T by=T MDAnalysis=T XYZWriter=T (release=T 2.4.3)=T pbc="F F F"
H      -19.42564000     -19.28683000      -1.78486000
O      -18.83229000     -19.33210000      -2.53729000
H      -18.29527000     -18.49443000      -2.45741000
H      -17.41153000     -18.12981000      -0.22014000
O      -18.24636000     -17.86788000       0.16288000
H      -18.84159000     -17.79655000      -0.60764000
