6
Properties=species:S:1:pos:R:3 frame=T 14=T |=T Written=T by=T MDAnalysis=T XYZWriter=T (release=T 2.4.3)=T pbc="F F F"
H       -2.91446000       8.45341000     -17.31591000
O       -3.90101000       8.58787000     -17.33303000
H       -4.20283000       7.75561000     -17.71808000
H       -1.61870000       8.54048000     -16.14792000
O       -1.55544000       7.58259000     -16.30358000
H       -2.40914000       7.22464000     -15.96331000
