6
Properties=species:S:1:pos:R:3 frame=T 3=T |=T Written=T by=T MDAnalysis=T XYZWriter=T (release=T 2.4.3)=T pbc="F F F"
H      -17.92977000      14.71846000     -12.20397000
O      -17.14208000      15.22683000     -12.38244000
H      -16.49067000      14.54014000     -12.63088000
H      -14.89277000      13.15779000     -12.56150000
O      -15.06232000      13.90942000     -13.16853000
H      -15.43385000      13.49930000     -13.93976000
