6
Properties=species:S:1:pos:R:3 frame=T 32=T |=T Written=T by=T MDAnalysis=T XYZWriter=T (release=T 2.4.3)=T pbc="F F F"
H      -10.75309000      17.84964000       5.21422000
O      -11.08056000      18.63637000       5.68588000
H      -11.94695000      18.76469000       5.26676000
H      -12.40843000      15.90229000       7.36946000
O      -11.91696000      16.55801000       7.86948000
H      -11.84232000      17.32684000       7.29676000
