6
Properties=species:S:1:pos:R:3 frame=T 46=T |=T Written=T by=T MDAnalysis=T XYZWriter=T (release=T 2.4.3)=T pbc="F F F"
H       12.46901000       8.22567000     -15.78585000
O       12.49811000       9.14133000     -15.44582000
H       12.29549000       9.70706000     -16.18974000
H       13.27562000      10.51293000     -17.44481000
O       12.62848000      11.19446000     -17.54683000
H       12.98913000      11.75785000     -18.22551000
