6
Properties=species:S:1:pos:R:3 frame=T 49=T |=T Written=T by=T MDAnalysis=T XYZWriter=T (release=T 2.4.3)=T pbc="F F F"
H        9.90408000      -7.65301000      16.61303000
O        9.65903000      -6.71647000      16.51410000
H        9.87583000      -6.28461000      17.34750000
H       11.69424000      -6.87477000      16.56076000
O       12.27694000      -6.12639000      16.41844000
H       13.12321000      -6.59981000      16.39838000
