6
Properties=species:S:1:pos:R:3 frame=T 42=T |=T Written=T by=T MDAnalysis=T XYZWriter=T (release=T 2.4.3)=T pbc="F F F"
H        4.38492000     -11.51449000      17.71866000
O        4.30589000     -10.56472000      17.49553000
H        3.64400000     -10.23391000      18.10108000
H        3.77526000     -13.44884000      18.98393000
O        4.65086000     -13.03900000      18.86480000
H        4.77864000     -13.20234000      17.94381000
