6
Properties=species:S:1:pos:R:3 frame=T 8=T |=T Written=T by=T MDAnalysis=T XYZWriter=T (release=T 2.4.3)=T pbc="F F F"
H       11.00442000      12.53126000      15.70053000
O       10.44900000      12.31001000      16.43894000
H        9.59967000      12.15826000      16.03518000
H       12.79402000      10.42939000      15.96006000
O       12.22243000      10.13249000      15.22021000
H       11.37128000      10.46743000      15.57948000
