6
Properties=species:S:1:pos:R:3 frame=T 32=T |=T Written=T by=T MDAnalysis=T XYZWriter=T (release=T 2.4.3)=T pbc="F F F"
H        5.60545000     -11.91975000       4.63648000
O        5.50821000     -12.84410000       4.37591000
H        6.06956000     -12.91611000       3.61373000
H        3.66905000     -13.41404000       3.94075000
O        3.01231000     -13.72242000       3.31451000
H        2.16747000     -13.58776000       3.76028000
