6
Properties=species:S:1:pos:R:3 frame=T 22=T |=T Written=T by=T MDAnalysis=T XYZWriter=T (release=T 2.4.3)=T pbc="F F F"
H        4.34022000     -17.02649000      -4.47359000
O        4.94797000     -17.73208000      -4.23961000
H        4.45792000     -18.53255000      -4.44858000
H        4.01947000     -15.41939000      -6.27494000
O        3.54130000     -15.36982000      -5.43595000
H        3.87664000     -14.54379000      -5.09171000
