6
Properties=species:S:1:pos:R:3 frame=T 30=T |=T Written=T by=T MDAnalysis=T XYZWriter=T (release=T 2.4.3)=T pbc="F F F"
H       16.11073000       1.98903000      12.35597000
O       17.05764000       2.03721000      12.52779000
H       17.16536000       2.54622000      13.35738000
H       17.57776000      -0.48428000      14.30535000
O       17.95914000      -0.20865000      13.46812000
H       17.40702000       0.52944000      13.18596000
