6
Properties=species:S:1:pos:R:3 frame=T 49=T |=T Written=T by=T MDAnalysis=T XYZWriter=T (release=T 2.4.3)=T pbc="F F F"
H       11.53227000      -2.88339000       5.73856000
O       12.40299000      -3.22874000       5.85456000
H       12.85303000      -2.82375000       5.13793000
H       12.12221000      -3.73767000       7.67786000
O       11.83869000      -3.46530000       8.56152000
H       11.51815000      -4.26557000       8.98992000
