6
Properties=species:S:1:pos:R:3 frame=T 44=T |=T Written=T by=T MDAnalysis=T XYZWriter=T (release=T 2.4.3)=T pbc="F F F"
H        6.03555000     -15.04864000       1.59011000
O        6.75066000     -14.55372000       1.99295000
H        6.74071000     -14.82196000       2.91906000
H        8.12844000     -17.49904000       1.13777000
O        8.48426000     -17.23084000       2.00308000
H        7.88702000     -16.53581000       2.33885000
