6
Properties=species:S:1:pos:R:3 frame=T 38=T |=T Written=T by=T MDAnalysis=T XYZWriter=T (release=T 2.4.3)=T pbc="F F F"
H       11.53200000      15.89647000      15.21423000
O       11.47388000      15.79314000      14.26529000
H       11.28026000      14.85495000      14.18515000
H       12.26348000      16.95258000      16.60387000
O       11.48115000      16.64697000      17.06901000
H       10.83492000      17.25789000      16.70079000
