6
Properties=species:S:1:pos:R:3 frame=T 21=T |=T Written=T by=T MDAnalysis=T XYZWriter=T (release=T 2.4.3)=T pbc="F F F"
H      -17.65304000     -16.93679000      17.46926000
O      -17.14737000     -16.90802000      16.63436000
H      -17.75881000     -17.10180000      15.90677000
H      -15.45671000     -16.33818000      16.39713000
O      -14.75188000     -16.16983000      15.75054000
H      -13.96124000     -16.20136000      16.29343000
