6
Properties=species:S:1:pos:R:3 frame=T 20=T |=T Written=T by=T MDAnalysis=T XYZWriter=T (release=T 2.4.3)=T pbc="F F F"
H        0.71621000      14.51025000       8.46171000
O        0.47371000      14.70257000       9.37877000
H        1.12270000      15.37070000       9.66519000
H       -0.98216000      14.97933000      12.12375000
O       -1.64383000      15.11966000      11.42657000
H       -1.10772000      15.05543000      10.63171000
