6
Properties=species:S:1:pos:R:3 frame=T 39=T |=T Written=T by=T MDAnalysis=T XYZWriter=T (release=T 2.4.3)=T pbc="F F F"
H      -14.30490000     -12.67331000       7.44084000
O      -13.86549000     -12.94378000       6.64629000
H      -12.96119000     -12.75162000       6.83967000
H      -10.52344000     -13.35371000       7.88592000
O      -11.14325000     -13.08180000       7.19884000
H      -10.60275000     -12.75897000       6.50869000
