6
Properties=species:S:1:pos:R:3 frame=T 14=T |=T Written=T by=T MDAnalysis=T XYZWriter=T (release=T 2.4.3)=T pbc="F F F"
H        3.67960000     -15.45225000     -17.76171000
O        2.77712000     -15.25580000     -18.02929000
H        2.48115000     -14.68352000     -17.31202000
H        3.63021000     -17.14770000     -18.00900000
O        4.10452000     -17.76080000     -18.57004000
H        4.83597000     -18.10826000     -18.08225000
