6
Properties=species:S:1:pos:R:3 frame=T 7=T |=T Written=T by=T MDAnalysis=T XYZWriter=T (release=T 2.4.3)=T pbc="F F F"
H       16.65664000      11.99609000       0.18685000
O       15.94554000      11.36941000      -0.05632000
H       15.57947000      11.10467000       0.79242000
H       15.60435000       9.93537000       2.82303000
O       15.72015000      10.89072000       2.80818000
H       15.68969000      11.07162000       3.75324000
