6
Properties=species:S:1:pos:R:3 frame=T 5=T |=T Written=T by=T MDAnalysis=T XYZWriter=T (release=T 2.4.3)=T pbc="F F F"
H      -10.08779000     -10.44830000       4.41688000
O      -10.05806000      -9.46122000       4.33907000
H       -9.89222000      -9.32209000       3.38296000
H       -9.48648000      -8.68582000       1.37909000
O       -9.99084000      -9.42456000       1.72112000
H       -9.52651000     -10.23231000       1.47598000
