6
Properties=species:S:1:pos:R:3 frame=T 1=T |=T Written=T by=T MDAnalysis=T XYZWriter=T (release=T 2.4.3)=T pbc="F F F"
H        1.31087000      -5.23247000      -1.73170000
O        1.60012000      -6.12157000      -1.84919000
H        1.68712000      -6.45397000      -0.93300000
H        1.12383000      -2.61753000      -2.25098000
O        0.90571000      -3.53944000      -2.11681000
H        1.04432000      -3.61709000      -1.18424000
