6
Properties=species:S:1:pos:R:3 frame=T 39=T |=T Written=T by=T MDAnalysis=T XYZWriter=T (release=T 2.4.3)=T pbc="F F F"
H        5.61961000      -8.99058000       1.15480000
O        5.46779000      -8.03798000       1.13384000
H        6.32745000      -7.69665000       0.89366000
H        7.35548000     -10.51923000       1.78007000
O        6.43329000     -10.64706000       1.44332000
H        6.56416000     -10.91342000       0.51900000
