6
Properties=species:S:1:pos:R:3 frame=T 13=T |=T Written=T by=T MDAnalysis=T XYZWriter=T (release=T 2.4.3)=T pbc="F F F"
H       -3.64714000     -10.57303000       6.29977000
O       -3.79704000     -10.23890000       7.17299000
H       -3.84930000     -11.05431000       7.67402000
H       -2.36121000     -10.14472000       3.89435000
O       -3.13101000     -10.26772000       4.49182000
H       -3.52293000     -11.06174000       4.08466000
