6
Properties=species:S:1:pos:R:3 frame=T 4=T |=T Written=T by=T MDAnalysis=T XYZWriter=T (release=T 2.4.3)=T pbc="F F F"
H        0.50999000      -9.90655000      11.31021000
O        0.09659000     -10.65076000      10.84788000
H       -0.64757000     -10.18844000      10.40213000
H       -2.15194000      -8.24320000      11.40060000
O       -1.86263000      -8.57630000      10.56307000
H       -2.40668000      -9.32153000      10.36996000
