6
Properties=species:S:1:pos:R:3 frame=T 34=T |=T Written=T by=T MDAnalysis=T XYZWriter=T (release=T 2.4.3)=T pbc="F F F"
H      -15.95895000      -8.17158000     -17.50670000
O      -16.37453000      -8.42469000     -18.29748000
H      -15.63431000      -8.67900000     -18.84976000
H      -14.19111000     -10.21224000     -15.99753000
O      -13.84860000      -9.48931000     -16.54358000
H      -14.49832000      -8.79664000     -16.37981000
