6
Properties=species:S:1:pos:R:3 frame=T 24=T |=T Written=T by=T MDAnalysis=T XYZWriter=T (release=T 2.4.3)=T pbc="F F F"
H       14.00776000      -6.98570000     -10.31563000
O       13.05300000      -7.03917000     -10.50815000
H       12.88392000      -6.17097000     -10.87477000
H       16.36697000      -7.78101000      -9.71315000
O       15.54809000      -7.36656000      -9.41038000
H       15.65310000      -7.19973000      -8.45415000
