6
Properties=species:S:1:pos:R:3 frame=T 52=T |=T Written=T by=T MDAnalysis=T XYZWriter=T (release=T 2.4.3)=T pbc="F F F"
H       11.48117000       6.02804000     -13.42999000
O       11.31596000       6.37744000     -14.32853000
H       11.63203000       5.67199000     -14.91190000
H       10.96969000       7.24991000     -10.88809000
O       10.97652000       6.47530000     -11.46352000
H       11.90281000       6.38834000     -11.62441000
