6
Properties=species:S:1:pos:R:3 frame=T 13=T |=T Written=T by=T MDAnalysis=T XYZWriter=T (release=T 2.4.3)=T pbc="F F F"
H      -19.02115000      16.95827000      10.33860000
O      -19.01654000      17.20334000       9.42151000
H      -18.49986000      18.01413000       9.41931000
H      -18.54683000      15.25739000      12.63298000
O      -18.67222000      16.08742000      12.14335000
H      -17.79971000      16.44511000      12.22790000
