6
Properties=species:S:1:pos:R:3 frame=T 3=T |=T Written=T by=T MDAnalysis=T XYZWriter=T (release=T 2.4.3)=T pbc="F F F"
H       15.74091000      -3.14166000      -3.05637000
O       15.27933000      -2.97004000      -2.20991000
H       15.36415000      -3.76265000      -1.70784000
H       15.46087000      -3.98539000      -5.09135000
O       16.38268000      -4.03258000      -4.79321000
H       16.64641000      -3.12842000      -4.64620000
