6
Properties=species:S:1:pos:R:3 frame=T 8=T |=T Written=T by=T MDAnalysis=T XYZWriter=T (release=T 2.4.3)=T pbc="F F F"
H      -17.08718000       9.25513000      15.14374000
O      -16.85894000       8.43812000      15.60045000
H      -15.89441000       8.37810000      15.47018000
H      -15.85223000       6.21602000      13.18368000
O      -16.79683000       6.36097000      13.24943000
H      -16.89293000       6.73411000      14.11478000
