6
Properties=species:S:1:pos:R:3 frame=T 44=T |=T Written=T by=T MDAnalysis=T XYZWriter=T (release=T 2.4.3)=T pbc="F F F"
H       12.91045000      10.75891000       0.18385000
O       12.65444000      10.17115000       0.91662000
H       11.78479000      10.45695000       1.19339000
H        9.52074000      10.23788000       2.61871000
O       10.03169000      11.02402000       2.48871000
H        9.88993000      11.18970000       1.53116000
