6
Properties=species:S:1:pos:R:3 frame=T 45=T |=T Written=T by=T MDAnalysis=T XYZWriter=T (release=T 2.4.3)=T pbc="F F F"
H      -11.82278000      16.06952000      -4.35790000
O      -11.18692000      15.88840000      -3.62671000
H      -10.33390000      16.24928000      -3.86191000
H      -13.39940000      16.02161000      -5.69258000
O      -12.59137000      16.11633000      -6.21870000
H      -12.19061000      15.23551000      -6.17411000
