6
Properties=species:S:1:pos:R:3 frame=T 0=T |=T Written=T by=T MDAnalysis=T XYZWriter=T (release=T 2.4.3)=T pbc="F F F"
H       12.25522000     -15.89224000      -0.65570000
O       12.55487000     -15.55076000       0.18964000
H       13.48110000     -15.35059000       0.04205000
H       12.38021000     -16.75884000       1.36633000
O       12.34817000     -17.53971000       1.89489000
H       12.16165000     -18.26063000       1.30002000
