6
Properties=species:S:1:pos:R:3 frame=T 43=T |=T Written=T by=T MDAnalysis=T XYZWriter=T (release=T 2.4.3)=T pbc="F F F"
H       -3.03235000      -1.14059000      -6.76304000
O       -2.86655000      -0.21796000      -6.60915000
H       -2.73036000       0.15092000      -7.49510000
H       -2.59798000       0.32619000      -9.59629000
O       -2.20246000       1.00216000      -9.01283000
H       -1.30462000       0.68202000      -8.93589000
