6
Properties=species:S:1:pos:R:3 frame=T 48=T |=T Written=T by=T MDAnalysis=T XYZWriter=T (release=T 2.4.3)=T pbc="F F F"
H        3.99627000      13.71806000      16.14960000
O        4.62517000      13.82786000      16.86388000
H        5.30764000      14.42792000      16.52763000
H        5.75215000      13.88934000      14.61588000
O        6.10765000      14.75316000      14.41587000
H        7.05865000      14.61983000      14.30803000
