6
Properties=species:S:1:pos:R:3 frame=T 23=T |=T Written=T by=T MDAnalysis=T XYZWriter=T (release=T 2.4.3)=T pbc="F F F"
H       -6.59585000       6.86859000      15.10781000
O       -6.36501000       7.53216000      14.45303000
H       -7.08826000       7.64410000      13.83176000
H       -5.18254000       5.12837000      12.86050000
O       -4.63313000       5.90109000      12.63647000
H       -5.16464000       6.58813000      13.05256000
