6
Properties=species:S:1:pos:R:3 frame=T 41=T |=T Written=T by=T MDAnalysis=T XYZWriter=T (release=T 2.4.3)=T pbc="F F F"
H       11.05423000      17.54577000      15.98921000
O       11.77194000      17.51526000      15.32203000
H       12.56430000      17.32720000      15.85349000
H       13.78146000      17.03100000      17.84909000
O       14.19911000      17.73471000      17.33261000
H       14.89714000      17.34573000      16.80358000
