6
Properties=species:S:1:pos:R:3 frame=T 47=T |=T Written=T by=T MDAnalysis=T XYZWriter=T (release=T 2.4.3)=T pbc="F F F"
H       -6.30645000      18.02959000      -6.52349000
O       -6.96685000      18.72107000      -6.68923000
H       -6.69975000      19.11367000      -7.52503000
H       -8.91111000      17.38774000      -8.74856000
O       -8.85788000      17.10205000      -7.83886000
H       -8.19141000      17.67619000      -7.43427000
