6
Properties=species:S:1:pos:R:3 frame=T 45=T |=T Written=T by=T MDAnalysis=T XYZWriter=T (release=T 2.4.3)=T pbc="F F F"
H       -8.06803000      13.19762000       0.34027000
O       -7.70547000      12.98396000      -0.55152000
H       -7.88341000      12.06274000      -0.71831000
H       -8.69076000       9.28518000      -1.09538000
O       -8.67784000      10.20407000      -0.88545000
H       -9.40022000      10.57083000      -1.40576000
