6
Properties=species:S:1:pos:R:3 frame=T 27=T |=T Written=T by=T MDAnalysis=T XYZWriter=T (release=T 2.4.3)=T pbc="F F F"
H        4.86308000     -13.35104000       4.13594000
O        4.87821000     -13.54369000       3.17049000
H        3.96128000     -13.76814000       2.91039000
H        6.56562000     -12.15500000       4.67197000
O        7.42377000     -11.75480000       4.54718000
H        7.88444000     -11.90024000       5.37313000
