6
Properties=species:S:1:pos:R:3 frame=T 38=T |=T Written=T by=T MDAnalysis=T XYZWriter=T (release=T 2.4.3)=T pbc="F F F"
H       -1.93778000     -13.89692000      15.13230000
O       -1.29621000     -13.39848000      15.64570000
H       -0.89426000     -14.06227000      16.23772000
H        0.36358000     -15.26997000      14.29468000
O       -0.11184000     -15.88573000      14.84799000
H       -1.00140000     -15.53136000      14.87374000
