6
Properties=species:S:1:pos:R:3 frame=T 48=T |=T Written=T by=T MDAnalysis=T XYZWriter=T (release=T 2.4.3)=T pbc="F F F"
H      -14.41975000     -19.54003000      -3.16463000
O      -14.53213000     -18.78981000      -3.77169000
H      -13.80496000     -18.26410000      -3.45769000
H      -16.79316000     -17.55291000      -6.42131000
O      -16.59597000     -17.33586000      -5.48403000
H      -15.99415000     -18.04212000      -5.23809000
