6
Properties=species:S:1:pos:R:3 frame=T 9=T |=T Written=T by=T MDAnalysis=T XYZWriter=T (release=T 2.4.3)=T pbc="F F F"
H        7.64677000      -0.92620000      16.48125000
O        7.16875000      -1.68192000      16.13591000
H        7.84198000      -2.23487000      15.70761000
H        6.52952000      -2.72231000      19.32942000
O        6.37854000      -3.28075000      18.54531000
H        6.40503000      -2.70871000      17.77521000
