6
Properties=species:S:1:pos:R:3 frame=T 53=T |=T Written=T by=T MDAnalysis=T XYZWriter=T (release=T 2.4.3)=T pbc="F F F"
H      -12.38438000       8.72091000      -8.27033000
O      -11.95343000       8.41462000      -9.07309000
H      -12.65007000       8.46475000      -9.74087000
H       -8.69872000       8.66575000      -9.35882000
O       -9.38771000       9.06669000      -9.91645000
H      -10.20914000       8.60977000      -9.72239000
