6
Properties=species:S:1:pos:R:3 frame=T 48=T |=T Written=T by=T MDAnalysis=T XYZWriter=T (release=T 2.4.3)=T pbc="F F F"
H        9.02544000      13.94550000     -17.06528000
O        9.53835000      13.63512000     -16.28214000
H        9.36120000      14.36798000     -15.65475000
H        7.86443000      16.01681000     -15.63452000
O        8.19649000      15.58033000     -14.83206000
H        7.40163000      15.38269000     -14.32291000
