6
Properties=species:S:1:pos:R:3 frame=T 15=T |=T Written=T by=T MDAnalysis=T XYZWriter=T (release=T 2.4.3)=T pbc="F F F"
H       -4.29021000      14.94829000       4.00527000
O       -4.04338000      15.82299000       3.68769000
H       -3.24225000      15.71889000       3.15705000
H       -6.79172000      17.49354000       2.49048000
O       -6.28630000      17.25413000       3.29533000
H       -5.45688000      16.87331000       2.95051000
