6
Properties=species:S:1:pos:R:3 frame=T 24=T |=T Written=T by=T MDAnalysis=T XYZWriter=T (release=T 2.4.3)=T pbc="F F F"
H       12.21014000     -12.71833000      14.43107000
O       12.45133000     -11.90073000      13.96660000
H       13.24567000     -12.18525000      13.49986000
H       12.65368000      -8.76925000      12.78163000
O       12.41455000      -9.27419000      13.59023000
H       12.90059000     -10.09156000      13.55680000
