6
Properties=species:S:1:pos:R:3 frame=T 20=T |=T Written=T by=T MDAnalysis=T XYZWriter=T (release=T 2.4.3)=T pbc="F F F"
H      -17.93882000     -10.87750000      11.15536000
O      -18.16407000     -10.17794000      11.83138000
H      -17.66716000     -10.47133000      12.58140000
H      -15.63959000     -12.55573000      10.81889000
O      -16.46609000     -12.17655000      11.08212000
H      -16.89189000     -12.81290000      11.64061000
