6
Properties=species:S:1:pos:R:3 frame=T 26=T |=T Written=T by=T MDAnalysis=T XYZWriter=T (release=T 2.4.3)=T pbc="F F F"
H       15.05598000       3.84023000      11.79777000
O       14.92477000       4.58647000      12.42619000
H       15.81641000       4.91236000      12.54516000
H       13.52958000       3.64632000       9.82726000
O       12.98341000       4.19695000      10.38398000
H       13.61263000       4.63570000      10.98784000
