6
Properties=species:S:1:pos:R:3 frame=T 15=T |=T Written=T by=T MDAnalysis=T XYZWriter=T (release=T 2.4.3)=T pbc="F F F"
H       -7.12445000       5.32572000      -5.73815000
O       -6.57135000       5.02641000      -6.46373000
H       -6.22852000       4.15749000      -6.21330000
H       -8.11002000       4.61570000      -4.30892000
O       -8.29634000       5.54185000      -4.15117000
H       -9.19301000       5.64867000      -4.44792000
