6
Properties=species:S:1:pos:R:3 frame=T 18=T |=T Written=T by=T MDAnalysis=T XYZWriter=T (release=T 2.4.3)=T pbc="F F F"
H        3.99347000      -3.63606000     -16.39254000
O        4.40726000      -3.83895000     -17.27477000
H        4.70304000      -2.96039000     -17.54129000
H        2.70621000      -3.01027000     -17.78171000
O        1.90729000      -2.53733000     -18.06600000
H        1.29982000      -3.28110000     -18.27573000
