6
Properties=species:S:1:pos:R:3 frame=T 46=T |=T Written=T by=T MDAnalysis=T XYZWriter=T (release=T 2.4.3)=T pbc="F F F"
H       12.01740000       9.59532000     -10.15061000
O       11.77107000      10.11957000     -10.91071000
H       11.10308000      10.70913000     -10.53584000
H       12.13559000       8.24989000      -7.97391000
O       11.74479000       9.12714000      -8.20842000
H       11.17269000       9.27076000      -7.45391000
