6
Properties=species:S:1:pos:R:3 frame=T 43=T |=T Written=T by=T MDAnalysis=T XYZWriter=T (release=T 2.4.3)=T pbc="F F F"
H        2.76987000      -8.27633000      -5.67243000
O        3.15083000      -8.58979000      -4.84995000
H        3.34818000      -7.77548000      -4.37563000
H        3.41913000      -5.93532000      -4.99396000
O        4.10587000      -5.49084000      -4.49606000
H        3.62195000      -4.90544000      -3.88062000
