6
Properties=species:S:1:pos:R:3 frame=T 50=T |=T Written=T by=T MDAnalysis=T XYZWriter=T (release=T 2.4.3)=T pbc="F F F"
H       -1.58792000       3.06136000     -10.10265000
O       -0.98948000       3.16978000     -10.84091000
H       -1.60888000       3.39070000     -11.54994000
H       -2.91322000       2.29075000      -8.67451000
O       -2.62499000       3.20062000      -8.68961000
H       -3.41088000       3.69310000      -9.03099000
