6
Properties=species:S:1:pos:R:3 frame=T 46=T |=T Written=T by=T MDAnalysis=T XYZWriter=T (release=T 2.4.3)=T pbc="F F F"
H       -4.77907000      -2.17710000      14.68163000
O       -4.37257000      -1.65475000      13.96866000
H       -3.66090000      -1.14457000      14.38968000
H       -6.11985000      -0.37444000      13.84267000
O       -7.06696000      -0.33451000      13.63181000
H       -6.99717000       0.12617000      12.79030000
