6
Properties=species:S:1:pos:R:3 frame=T 26=T |=T Written=T by=T MDAnalysis=T XYZWriter=T (release=T 2.4.3)=T pbc="F F F"
H        9.28960000      16.13722000     -16.09406000
O        8.74541000      16.43494000     -15.36518000
H        7.84450000      16.33516000     -15.69654000
H        8.55594000      17.29308000     -13.67420000
O        8.54902000      17.68014000     -12.80784000
H        9.48188000      17.69041000     -12.57720000
