6
Properties=species:S:1:pos:R:3 frame=T 51=T |=T Written=T by=T MDAnalysis=T XYZWriter=T (release=T 2.4.3)=T pbc="F F F"
H       -8.09437000      -3.29834000      -9.72288000
O       -8.10526000      -3.02402000      -8.80829000
H       -8.84947000      -3.46672000      -8.43640000
H       -7.15383000      -3.39697000     -12.25263000
O       -7.00828000      -3.31788000     -11.27425000
H       -6.64764000      -2.39686000     -11.27227000
