6
Properties=species:S:1:pos:R:3 frame=T 54=T |=T Written=T by=T MDAnalysis=T XYZWriter=T (release=T 2.4.3)=T pbc="F F F"
H       11.61511000      -2.11146000       0.94873000
O       11.32385000      -1.23646000       0.71139000
H       12.10674000      -0.77145000       0.32412000
H       13.12174000      -1.61155000      -1.11375000
O       13.33123000      -0.66334000      -1.16570000
H       14.31036000      -0.66634000      -1.08039000
