6
Properties=species:S:1:pos:R:3 frame=T 34=T |=T Written=T by=T MDAnalysis=T XYZWriter=T (release=T 2.4.3)=T pbc="F F F"
H        3.51063000      -6.38070000      14.22324000
O        3.84769000      -7.22568000      14.58355000
H        4.47551000      -6.91890000      15.20072000
H        5.95228000      -7.61617000      13.72514000
O        6.89761000      -7.53377000      13.69036000
H        7.12349000      -6.76749000      14.22859000
