6
Properties=species:S:1:pos:R:3 frame=T 41=T |=T Written=T by=T MDAnalysis=T XYZWriter=T (release=T 2.4.3)=T pbc="F F F"
H       -0.22351000      -9.76616000       6.06161000
O        0.59450000      -9.90489000       6.59495000
H        0.39822000     -10.71670000       7.06419000
H       -1.53786000      -8.39822000       8.69284000
O       -1.09042000      -8.12908000       7.88187000
H       -0.40523000      -8.82342000       7.77176000
