6
Properties=species:S:1:pos:R:3 frame=T 54=T |=T Written=T by=T MDAnalysis=T XYZWriter=T (release=T 2.4.3)=T pbc="F F F"
H       -6.14161000     -11.85253000     -11.04824000
O       -5.72435000     -11.17242000     -11.58444000
H       -4.82919000     -11.13647000     -11.19271000
H       -4.99955000      -9.53628000     -12.33290000
O       -4.30417000      -9.14459000     -12.90904000
H       -4.42708000      -8.18932000     -12.76585000
