6
Properties=species:S:1:pos:R:3 frame=T 0=T |=T Written=T by=T MDAnalysis=T XYZWriter=T (release=T 2.4.3)=T pbc="F F F"
H      -11.74235000       3.25498000      15.18274000
O      -12.31507000       3.99292000      14.92227000
H      -12.94385000       4.04332000      15.65364000
H      -10.36535000       1.25740000      15.69290000
O      -10.41964000       2.04669000      15.16710000
H       -9.56973000       2.07184000      14.71446000
