6
Properties=species:S:1:pos:R:3 frame=T 54=T |=T Written=T by=T MDAnalysis=T XYZWriter=T (release=T 2.4.3)=T pbc="F F F"
H      -17.83152000      -8.10401000     -12.46100000
O      -18.39764000      -7.97885000     -11.74087000
H      -19.11792000      -7.47154000     -12.13818000
H      -17.63909000      -7.63282000      -9.90703000
O      -17.19661000      -7.11780000      -9.23854000
H      -16.62864000      -6.49798000      -9.71820000
