6
Properties=species:S:1:pos:R:3 frame=T 21=T |=T Written=T by=T MDAnalysis=T XYZWriter=T (release=T 2.4.3)=T pbc="F F F"
H       10.10706000      -4.23645000       9.57901000
O       10.67011000      -3.94431000      10.31149000
H       10.61768000      -4.73087000      10.90216000
H        8.51683000      -3.24769000       8.70766000
O        8.55903000      -4.19200000       8.84757000
H        8.77829000      -4.58068000       7.96970000
