6
Properties=species:S:1:pos:R:3 frame=T 33=T |=T Written=T by=T MDAnalysis=T XYZWriter=T (release=T 2.4.3)=T pbc="F F F"
H      -17.78984000     -17.98153000       8.90513000
O      -17.54029000     -17.28883000       8.26836000
H      -16.89845000     -16.80487000       8.77726000
H      -15.92429000     -15.42164000      10.44417000
O      -16.62068000     -16.04175000      10.75859000
H      -16.12198000     -16.82147000      11.04945000
