6
Properties=species:S:1:pos:R:3 frame=T 13=T |=T Written=T by=T MDAnalysis=T XYZWriter=T (release=T 2.4.3)=T pbc="F F F"
H       14.50663000      19.09606000      -9.60869000
O       14.70447000      19.21959000      -8.67439000
H       14.10941000      18.62572000      -8.20476000
H       11.22380000      19.09943000      -9.80840000
O       11.96179000      18.47507000      -9.89198000
H       12.56912000      18.93492000     -10.46788000
