6
Properties=species:S:1:pos:R:3 frame=T 9=T |=T Written=T by=T MDAnalysis=T XYZWriter=T (release=T 2.4.3)=T pbc="F F F"
H       -8.54731000      18.95807000      -5.97945000
O       -7.59636000      19.08991000      -6.14167000
H       -7.53329000      19.07606000      -7.12708000
H       -5.98658000      17.95185000      -8.20612000
O       -5.39766000      17.41349000      -7.69899000
H       -5.04756000      18.04596000      -7.06341000
