6
Properties=species:S:1:pos:R:3 frame=T 7=T |=T Written=T by=T MDAnalysis=T XYZWriter=T (release=T 2.4.3)=T pbc="F F F"
H      -16.13791000      13.62048000      -2.13310000
O      -16.19286000      14.57278000      -1.97751000
H      -15.96770000      14.65543000      -1.03056000
H      -15.95062000      11.27549000      -3.68958000
O      -16.04367000      12.15005000      -3.25941000
H      -16.78326000      12.53817000      -3.74571000
