6
Properties=species:S:1:pos:R:3 frame=T 53=T |=T Written=T by=T MDAnalysis=T XYZWriter=T (release=T 2.4.3)=T pbc="F F F"
H       -0.93120000     -10.32405000       3.72571000
O       -1.17908000     -10.82750000       4.52203000
H       -0.31613000     -10.97624000       4.95487000
H       -2.14988000     -10.74800000       2.41619000
O       -2.31347000      -9.85279000       2.08125000
H       -2.87937000      -9.47878000       2.79569000
