6
Properties=species:S:1:pos:R:3 frame=T 47=T |=T Written=T by=T MDAnalysis=T XYZWriter=T (release=T 2.4.3)=T pbc="F F F"
H       13.70422000     -14.85956000      13.62309000
O       13.55900000     -14.29266000      12.85913000
H       12.82636000     -13.71012000      13.12362000
H       12.57879000     -15.39264000      11.76871000
O       11.92407000     -15.78574000      11.17366000
H       11.10470000     -15.80900000      11.69432000
