6
Properties=species:S:1:pos:R:3 frame=T 9=T |=T Written=T by=T MDAnalysis=T XYZWriter=T (release=T 2.4.3)=T pbc="F F F"
H       -2.11001000      18.34576000      13.85168000
O       -2.82651000      19.01434000      14.03610000
H       -3.62231000      18.47312000      13.98255000
H       -3.98661000      16.58107000      16.73113000
O       -4.39014000      16.84102000      15.91670000
H       -3.63316000      16.85471000      15.31915000
