6
Properties=species:S:1:pos:R:3 frame=T 38=T |=T Written=T by=T MDAnalysis=T XYZWriter=T (release=T 2.4.3)=T pbc="F F F"
H        0.73866000       6.93399000       6.15587000
O        0.78484000       7.08486000       7.12001000
H        1.39120000       7.81543000       7.14466000
H       -1.58406000       8.39869000       8.47196000
O       -1.48215000       7.54568000       8.88544000
H       -0.92559000       7.10789000       8.22482000
