6
Properties=species:S:1:pos:R:3 frame=T 50=T |=T Written=T by=T MDAnalysis=T XYZWriter=T (release=T 2.4.3)=T pbc="F F F"
H        4.03043000      13.76925000       5.07883000
O        4.62481000      13.45541000       5.78802000
H        4.36207000      12.54692000       5.88656000
H        2.77241000      14.85032000       7.65537000
O        3.71100000      15.14295000       7.79608000
H        4.17820000      14.52960000       7.20167000
