6
Properties=species:S:1:pos:R:3 frame=T 47=T |=T Written=T by=T MDAnalysis=T XYZWriter=T (release=T 2.4.3)=T pbc="F F F"
H       -3.47943000      16.76518000       0.14196000
O       -2.53803000      16.55564000       0.13001000
H       -2.38724000      16.12510000       1.00709000
H       -0.59264000      16.56663000       0.99814000
O       -0.63520000      16.34596000       1.93696000
H        0.01417000      15.68460000       2.04679000
