6
Properties=species:S:1:pos:R:3 frame=T 19=T |=T Written=T by=T MDAnalysis=T XYZWriter=T (release=T 2.4.3)=T pbc="F F F"
H      -10.91234000      17.36702000     -11.90852000
O      -10.17638000      16.99057000     -11.36972000
H      -10.60411000      16.20296000     -11.01855000
H       -9.69915000      15.58669000     -12.47760000
O       -9.69515000      14.97851000     -13.24559000
H       -8.95410000      15.28526000     -13.78708000
