6
Properties=species:S:1:pos:R:3 frame=T 52=T |=T Written=T by=T MDAnalysis=T XYZWriter=T (release=T 2.4.3)=T pbc="F F F"
H       16.92927000      -9.63473000      -8.71675000
O       16.63881000     -10.53017000      -8.40304000
H       16.11441000     -10.33739000      -7.62085000
H       18.34900000      -8.21493000      -7.70724000
O       17.68227000      -8.00087000      -8.36294000
H       17.23471000      -7.20984000      -8.03244000
