6
Properties=species:S:1:pos:R:3 frame=T 19=T |=T Written=T by=T MDAnalysis=T XYZWriter=T (release=T 2.4.3)=T pbc="F F F"
H        2.64514000      17.93586000      17.63191000
O        2.01832000      17.42238000      18.07964000
H        2.51014000      17.20824000      18.88824000
H        5.20554000      17.12238000      18.47454000
O        5.60521000      16.31455000      18.17069000
H        5.69667000      16.43350000      17.20997000
