6
Properties=species:S:1:pos:R:3 frame=T 43=T |=T Written=T by=T MDAnalysis=T XYZWriter=T (release=T 2.4.3)=T pbc="F F F"
H       15.90643000      -5.69540000      -7.22734000
O       15.98479000      -4.98186000      -6.52794000
H       15.86336000      -5.52927000      -5.73960000
H       13.34679000      -5.65661000      -6.23342000
O       13.53343000      -6.57567000      -6.39712000
H       14.19505000      -6.58742000      -7.10022000
