6
Properties=species:S:1:pos:R:3 frame=T 17=T |=T Written=T by=T MDAnalysis=T XYZWriter=T (release=T 2.4.3)=T pbc="F F F"
H      -14.68807000      18.51515000     -13.58851000
O      -13.83750000      18.38213000     -13.12163000
H      -13.87455000      19.01463000     -12.39822000
H      -12.01931000      15.12259000     -13.42389000
O      -12.62472000      15.70846000     -12.95267000
H      -12.72639000      16.41262000     -13.56990000
