6
Properties=species:S:1:pos:R:3 frame=T 12=T |=T Written=T by=T MDAnalysis=T XYZWriter=T (release=T 2.4.3)=T pbc="F F F"
H        6.05402000     -15.41025000      16.35164000
O        6.48238000     -15.52544000      17.19998000
H        7.00546000     -16.31225000      16.98206000
H        4.34060000     -17.77971000      17.00594000
O        3.40889000     -17.49295000      16.89202000
H        3.45047000     -16.57211000      17.19541000
