6
Properties=species:S:1:pos:R:3 frame=T 14=T |=T Written=T by=T MDAnalysis=T XYZWriter=T (release=T 2.4.3)=T pbc="F F F"
H       -1.73224000       1.64455000      10.11287000
O       -1.32926000       0.82570000      10.41956000
H       -2.06428000       0.19920000      10.24235000
H       -3.71841000      -1.96548000      10.08490000
O       -3.72692000      -1.00495000      10.23342000
H       -4.11250000      -0.65144000       9.39471000
