6
Properties=species:S:1:pos:R:3 frame=T 28=T |=T Written=T by=T MDAnalysis=T XYZWriter=T (release=T 2.4.3)=T pbc="F F F"
H        0.80133000      16.95064000     -10.37414000
O        1.24998000      16.35979000     -10.97390000
H        1.25530000      16.83459000     -11.81954000
H        1.22368000      19.21218000     -12.96691000
O        0.69147000      18.41278000     -12.82781000
H       -0.15586000      18.64921000     -13.22320000
