6
Properties=species:S:1:pos:R:3 frame=T 19=T |=T Written=T by=T MDAnalysis=T XYZWriter=T (release=T 2.4.3)=T pbc="F F F"
H        5.80777000     -15.38029000     -12.35922000
O        6.73980000     -15.26930000     -12.44797000
H        6.92842000     -14.32905000     -12.43872000
H        5.08141000     -13.41472000     -14.97635000
O        5.82877000     -14.00055000     -15.16300000
H        6.16940000     -14.27738000     -14.30215000
