6
Properties=species:S:1:pos:R:3 frame=T 47=T |=T Written=T by=T MDAnalysis=T XYZWriter=T (release=T 2.4.3)=T pbc="F F F"
H      -11.31984000       3.91665000     -14.62729000
O      -11.04300000       4.82430000     -14.80309000
H      -11.49504000       5.32750000     -14.10834000
H      -12.50665000       7.60851000     -12.93477000
O      -11.96004000       6.90308000     -13.38267000
H      -11.38363000       7.45902000     -13.93724000
