6
Properties=species:S:1:pos:R:3 frame=T 44=T |=T Written=T by=T MDAnalysis=T XYZWriter=T (release=T 2.4.3)=T pbc="F F F"
H       10.95569000      -5.79180000      15.43884000
O       10.15967000      -5.42564000      15.00300000
H        9.62549000      -5.04350000      15.73547000
H       12.63821000      -6.51641000      15.87094000
O       12.66782000      -6.29126000      14.92836000
H       12.32119000      -7.08543000      14.50226000
