6
Properties=species:S:1:pos:R:3 frame=T 24=T |=T Written=T by=T MDAnalysis=T XYZWriter=T (release=T 2.4.3)=T pbc="F F F"
H        4.72390000      17.38253000       3.15822000
O        3.90678000      16.83694000       3.25002000
H        3.69720000      17.01584000       4.17198000
H        2.15114000      16.55542000       2.41575000
O        1.43371000      16.66753000       1.78456000
H        0.75540000      17.03979000       2.33137000
