6
Properties=species:S:1:pos:R:3 frame=T 13=T |=T Written=T by=T MDAnalysis=T XYZWriter=T (release=T 2.4.3)=T pbc="F F F"
H       11.62943000      -6.02224000      -9.93124000
O       12.00289000      -5.72484000     -10.77173000
H       12.64867000      -5.04055000     -10.47566000
H       10.61171000      -4.33179000     -10.10751000
O       10.07959000      -3.76161000      -9.52080000
H        9.25887000      -4.25441000      -9.39310000
