6
Properties=species:S:1:pos:R:3 frame=T 36=T |=T Written=T by=T MDAnalysis=T XYZWriter=T (release=T 2.4.3)=T pbc="F F F"
H        9.18382000      -3.48702000       3.47915000
O        8.38800000      -3.44169000       2.91623000
H        7.96046000      -2.62890000       3.21619000
H        8.60699000      -6.64324000       3.65227000
O        9.11570000      -5.83105000       3.76272000
H        8.51534000      -5.15395000       3.47033000
