6
Properties=species:S:1:pos:R:3 frame=T 45=T |=T Written=T by=T MDAnalysis=T XYZWriter=T (release=T 2.4.3)=T pbc="F F F"
H       -2.09341000      -2.53918000       1.93066000
O       -2.52516000      -3.40241000       2.08018000
H       -3.25784000      -3.16127000       2.65324000
H       -0.37071000      -0.52560000       0.83887000
O       -1.05117000      -1.04202000       1.28765000
H       -1.82379000      -0.72110000       0.80110000
