6
Properties=species:S:1:pos:R:3 frame=T 52=T |=T Written=T by=T MDAnalysis=T XYZWriter=T (release=T 2.4.3)=T pbc="F F F"
H       10.84483000     -14.36316000     -16.41980000
O       11.04516000     -14.23917000     -15.48548000
H       10.99942000     -13.27519000     -15.43047000
H       12.97489000     -13.51443000     -16.53197000
O       13.90173000     -13.57041000     -16.86105000
H       14.04927000     -12.88631000     -17.51359000
