6
Properties=species:S:1:pos:R:3 frame=T 52=T |=T Written=T by=T MDAnalysis=T XYZWriter=T (release=T 2.4.3)=T pbc="F F F"
H       -3.95323000      12.95637000       2.38631000
O       -4.48394000      12.24955000       1.99988000
H       -3.96501000      11.47586000       2.12821000
H       -2.88097000      10.11029000       1.31217000
O       -3.37357000       9.40001000       1.68946000
H       -2.73136000       8.93095000       2.24670000
