6
Properties=species:S:1:pos:R:3 frame=T 0=T |=T Written=T by=T MDAnalysis=T XYZWriter=T (release=T 2.4.3)=T pbc="F F F"
H      -16.90913000      -3.10282000      -6.85129000
O      -16.11876000      -3.15799000      -6.28042000
H      -16.44753000      -2.90120000      -5.41610000
H      -17.32572000      -0.57136000      -4.89320000
O      -17.72565000      -1.41160000      -4.69501000
H      -17.51677000      -1.64400000      -3.75737000
