6
Properties=species:S:1:pos:R:3 frame=T 18=T |=T Written=T by=T MDAnalysis=T XYZWriter=T (release=T 2.4.3)=T pbc="F F F"
H      -13.07257000     -13.42225000      -8.96532000
O      -12.52335000     -12.66842000      -8.84326000
H      -12.70706000     -12.32568000      -7.96457000
H      -14.11794000     -14.22994000     -10.16130000
O      -13.69308000     -14.94733000      -9.67249000
H      -13.76264000     -15.65922000     -10.31221000
