6
Properties=species:S:1:pos:R:3 frame=T 5=T |=T Written=T by=T MDAnalysis=T XYZWriter=T (release=T 2.4.3)=T pbc="F F F"
H        4.89008000     -11.81446000       9.84889000
O        5.62818000     -12.44353000       9.73766000
H        6.41093000     -11.89109000       9.82676000
H        8.99657000     -11.23044000      10.77888000
O        8.13937000     -11.60773000      10.48947000
H        8.43736000     -12.44907000      10.06127000
