6
Properties=species:S:1:pos:R:3 frame=T 11=T |=T Written=T by=T MDAnalysis=T XYZWriter=T (release=T 2.4.3)=T pbc="F F F"
H      -17.68998000      14.64928000      -5.46501000
O      -16.78871000      14.98102000      -5.46985000
H      -16.84844000      15.84023000      -5.00488000
H      -14.27377000      16.77008000      -5.79783000
O      -15.03466000      16.86821000      -6.38158000
H      -15.64996000      16.18762000      -6.13692000
