6
Properties=species:S:1:pos:R:3 frame=T 0=T |=T Written=T by=T MDAnalysis=T XYZWriter=T (release=T 2.4.3)=T pbc="F F F"
H       -5.42314000       4.39867000       9.94495000
O       -5.14381000       4.60386000      10.89296000
H       -4.57383000       5.36986000      10.80932000
H       -7.08018000       4.88727000      10.35156000
O       -7.99058000       5.13201000      10.04607000
H       -7.80367000       5.99726000       9.66293000
