6
Properties=species:S:1:pos:R:3 frame=T 19=T |=T Written=T by=T MDAnalysis=T XYZWriter=T (release=T 2.4.3)=T pbc="F F F"
H       16.65084000      16.89127000       2.44145000
O       17.46996000      16.37014000       2.51574000
H       17.57401000      15.88724000       1.68106000
H       14.81255000      18.19170000       1.88704000
O       15.17440000      17.30459000       1.81997000
H       14.66921000      16.82637000       2.49683000
