6
Properties=species:S:1:pos:R:3 frame=T 20=T |=T Written=T by=T MDAnalysis=T XYZWriter=T (release=T 2.4.3)=T pbc="F F F"
H       16.89803000      10.59514000     -11.52512000
O       15.98765000      10.51581000     -11.13468000
H       16.24375000      10.24795000     -10.24926000
H       16.64309000      12.20898000     -13.49770000
O       17.42129000      12.00224000     -12.95626000
H       18.04667000      11.61794000     -13.56525000
