6
Properties=species:S:1:pos:R:3 frame=T 6=T |=T Written=T by=T MDAnalysis=T XYZWriter=T (release=T 2.4.3)=T pbc="F F F"
H       15.19682000       9.38381000     -11.52835000
O       15.72508000      10.00687000     -11.05554000
H       16.62208000       9.78228000     -11.27367000
H       15.67943000      11.91652000     -13.40655000
O       15.89541000      12.40790000     -12.61848000
H       15.58661000      11.83409000     -11.95342000
