6
Properties=species:S:1:pos:R:3 frame=T 47=T |=T Written=T by=T MDAnalysis=T XYZWriter=T (release=T 2.4.3)=T pbc="F F F"
H        9.00360000       4.13439000      10.82660000
O        9.37268000       4.84529000      11.34016000
H       10.28688000       4.62088000      11.31842000
H       11.98060000       6.10691000      12.10790000
O       12.20324000       5.25573000      11.72603000
H       12.75689000       5.45950000      10.96465000
