6
Properties=species:S:1:pos:R:3 frame=T 33=T |=T Written=T by=T MDAnalysis=T XYZWriter=T (release=T 2.4.3)=T pbc="F F F"
H        2.65426000      13.27077000      13.61910000
O        1.86315000      13.56239000      14.12636000
H        1.33608000      13.94780000      13.41144000
H        1.33202000      14.10718000      15.68910000
O        0.89303000      14.07007000      16.55502000
H        1.14269000      14.82416000      17.11264000
