6
Properties=species:S:1:pos:R:3 frame=T 32=T |=T Written=T by=T MDAnalysis=T XYZWriter=T (release=T 2.4.3)=T pbc="F F F"
H        7.26603000     -13.55914000      12.91208000
O        7.60445000     -13.28384000      12.03859000
H        6.80068000     -13.35825000      11.50687000
H        5.27656000     -14.46597000      14.57308000
O        5.77127000     -13.98529000      13.92990000
H        5.14069000     -14.00241000      13.18521000
