6
Properties=species:S:1:pos:R:3 frame=T 33=T |=T Written=T by=T MDAnalysis=T XYZWriter=T (release=T 2.4.3)=T pbc="F F F"
H        0.44109000     -12.02721000       0.13674000
O       -0.02038000     -12.86113000       0.01779000
H        0.43213000     -13.47645000       0.59200000
H        0.49894000     -10.15494000       0.89192000
O        1.12379000     -10.39473000       0.19985000
H        0.74834000     -10.20502000      -0.66379000
