6
Properties=species:S:1:pos:R:3 frame=T 30=T |=T Written=T by=T MDAnalysis=T XYZWriter=T (release=T 2.4.3)=T pbc="F F F"
H       -0.71108000     -12.32949000      -7.48806000
O       -1.58004000     -12.12584000      -7.07066000
H       -1.58066000     -11.13825000      -7.12298000
H       -0.37987000     -10.62520000      -4.41930000
O       -0.80513000     -10.14177000      -5.13989000
H       -0.10662000     -10.28017000      -5.80015000
