6
Properties=species:S:1:pos:R:3 frame=T 47=T |=T Written=T by=T MDAnalysis=T XYZWriter=T (release=T 2.4.3)=T pbc="F F F"
H        0.82042000      12.14052000       9.08938000
O        0.67275000      13.06142000       9.41381000
H        0.77110000      12.95721000      10.36841000
H       -0.47821000      14.16210000      10.10619000
O       -1.17549000      14.70612000      10.53134000
H       -1.62483000      14.08420000      11.13718000
