6
Properties=species:S:1:pos:R:3 frame=T 0=T |=T Written=T by=T MDAnalysis=T XYZWriter=T (release=T 2.4.3)=T pbc="F F F"
H        0.28946000     -14.14489000     -18.38807000
O       -0.37210000     -13.43751000     -18.38498000
H        0.08496000     -12.73683000     -18.89768000
H       -1.46823000     -12.72909000     -16.99522000
O       -2.14540000     -12.60081000     -16.30122000
H       -2.24348000     -13.44262000     -15.82394000
