6
Properties=species:S:1:pos:R:3 frame=T 48=T |=T Written=T by=T MDAnalysis=T XYZWriter=T (release=T 2.4.3)=T pbc="F F F"
H       -4.32665000     -12.41449000     -18.32118000
O       -4.24516000     -11.46850000     -18.20567000
H       -4.17159000     -11.17286000     -19.10719000
H       -4.21348000      -9.59373000     -15.68407000
O       -3.45387000     -10.13772000     -15.87006000
H       -3.61658000     -10.49412000     -16.74566000
