6
Properties=species:S:1:pos:R:3 frame=T 46=T |=T Written=T by=T MDAnalysis=T XYZWriter=T (release=T 2.4.3)=T pbc="F F F"
H      -17.22394000       6.44831000      18.63560000
O      -17.82749000       6.12230000      17.93754000
H      -18.57676000       6.74185000      17.93509000
H      -16.95451000      10.37635000      16.83031000
O      -17.33306000       9.61596000      17.25577000
H      -18.27574000       9.83913000      17.32311000
