6
Properties=species:S:1:pos:R:3 frame=T 22=T |=T Written=T by=T MDAnalysis=T XYZWriter=T (release=T 2.4.3)=T pbc="F F F"
H        3.60072000      -4.26836000      16.36615000
O        3.25871000      -3.67548000      15.69571000
H        2.87239000      -4.28648000      15.03288000
H        3.85699000      -5.09275000      18.39386000
O        4.31000000      -4.40239000      18.92088000
H        4.93143000      -4.87644000      19.46596000
