6
Properties=species:S:1:pos:R:3 frame=T 35=T |=T Written=T by=T MDAnalysis=T XYZWriter=T (release=T 2.4.3)=T pbc="F F F"
H        6.57772000      10.38896000      -7.83762000
O        7.28026000      10.51590000      -8.48957000
H        7.96830000       9.88794000      -8.22344000
H        6.84696000      11.20938000     -10.57516000
O        7.46564000      11.50913000     -11.28625000
H        6.88448000      11.76608000     -12.02530000
