6
Properties=species:S:1:pos:R:3 frame=T 53=T |=T Written=T by=T MDAnalysis=T XYZWriter=T (release=T 2.4.3)=T pbc="F F F"
H        8.25636000       2.12545000       3.77382000
O        8.77890000       2.31198000       2.97009000
H        9.60792000       2.65118000       3.31768000
H        9.67899000       3.89756000       5.17805000
O       10.20731000       4.02453000       4.36340000
H        9.56784000       4.45311000       3.79197000
