6
Properties=species:S:1:pos:R:3 frame=T 28=T |=T Written=T by=T MDAnalysis=T XYZWriter=T (release=T 2.4.3)=T pbc="F F F"
H      -17.72790000      14.52389000     -16.72725000
O      -18.28100000      15.31886000     -16.81205000
H      -18.92418000      15.22840000     -16.11255000
H      -18.45042000      12.68284000     -17.02081000
O      -17.83213000      12.33278000     -16.34069000
H      -18.43651000      11.90211000     -15.71759000
