6
Properties=species:S:1:pos:R:3 frame=T 11=T |=T Written=T by=T MDAnalysis=T XYZWriter=T (release=T 2.4.3)=T pbc="F F F"
H      -17.90994000       5.93564000      -0.70674000
O      -17.30129000       5.18592000      -0.62271000
H      -17.65935000       4.52735000      -1.22226000
H      -15.85701000       5.21988000      -1.64504000
O      -15.31137000       4.83512000      -2.35759000
H      -14.84316000       4.11641000      -1.90671000
