6
Properties=species:S:1:pos:R:3 frame=T 3=T |=T Written=T by=T MDAnalysis=T XYZWriter=T (release=T 2.4.3)=T pbc="F F F"
H       13.89690000     -11.74775000       6.29243000
O       13.74124000     -11.98159000       7.19900000
H       13.95418000     -12.91240000       7.20371000
H       11.00731000     -12.87659000       5.71773000
O       10.87003000     -12.06525000       6.23482000
H       11.73361000     -11.95737000       6.65257000
