6
Properties=species:S:1:pos:R:3 frame=T 4=T |=T Written=T by=T MDAnalysis=T XYZWriter=T (release=T 2.4.3)=T pbc="F F F"
H       16.68135000      -8.91852000      -8.38719000
O       17.50152000      -8.72659000      -8.78124000
H       17.96097000      -8.22811000      -8.10870000
H       15.98152000      -8.70834000      -5.73807000
O       15.90393000      -9.21760000      -6.57208000
H       15.53875000     -10.07441000      -6.27481000
