6
Properties=species:S:1:pos:R:3 frame=T 3=T |=T Written=T by=T MDAnalysis=T XYZWriter=T (release=T 2.4.3)=T pbc="F F F"
H       -5.35477000       5.64417000      -1.26520000
O       -6.06351000       5.23129000      -1.82366000
H       -5.62428000       5.23439000      -2.68125000
H       -6.26116000       7.13624000      -0.92693000
O       -5.55880000       7.46234000      -0.34472000
H       -5.93870000       7.74821000       0.48621000
