6
Properties=species:S:1:pos:R:3 frame=T 6=T |=T Written=T by=T MDAnalysis=T XYZWriter=T (release=T 2.4.3)=T pbc="F F F"
H        0.72383000     -10.77936000     -14.54825000
O        0.23274000     -11.52041000     -14.90225000
H        0.55371000     -11.55494000     -15.80954000
H        1.71357000     -11.46847000     -17.56926000
O        1.63159000     -12.44081000     -17.67000000
H        2.32818000     -12.79804000     -17.10322000
