6
Properties=species:S:1:pos:R:3 frame=T 39=T |=T Written=T by=T MDAnalysis=T XYZWriter=T (release=T 2.4.3)=T pbc="F F F"
H        5.31349000       1.21927000      17.57788000
O        6.02462000       1.39087000      18.20729000
H        6.26252000       2.28044000      17.92387000
H        7.56113000       2.58875000      19.11029000
O        7.84159000       3.40657000      18.68339000
H        8.58893000       3.11857000      18.12269000
