6
Properties=species:S:1:pos:R:3 frame=T 19=T |=T Written=T by=T MDAnalysis=T XYZWriter=T (release=T 2.4.3)=T pbc="F F F"
H       11.86450000      10.76641000      -9.94703000
O       11.64632000      10.60102000     -10.86550000
H       12.05755000      11.25524000     -11.37751000
H       10.54944000      10.88475000      -8.16266000
O       11.06997000      11.67758000      -8.20632000
H       10.44097000      12.27201000      -7.82727000
