6
Properties=species:S:1:pos:R:3 frame=T 0=T |=T Written=T by=T MDAnalysis=T XYZWriter=T (release=T 2.4.3)=T pbc="F F F"
H       18.11497000     -16.17235000      13.03484000
O       18.11044000     -15.75559000      13.89556000
H       17.18959000     -15.44600000      13.99927000
H       17.02422000     -16.88141000      11.33024000
O       17.88756000     -16.43684000      11.19064000
H       17.62457000     -15.69556000      10.71441000
