6
Properties=species:S:1:pos:R:3 frame=T 35=T |=T Written=T by=T MDAnalysis=T XYZWriter=T (release=T 2.4.3)=T pbc="F F F"
H       17.38715000      -5.57355000      -6.71785000
O       18.17428000      -5.56985000      -6.15625000
H       17.88386000      -5.42257000      -5.25910000
H       15.34197000      -5.61972000      -7.14911000
O       15.59999000      -5.25788000      -8.03365000
H       15.20337000      -4.37478000      -8.04417000
