6
Properties=species:S:1:pos:R:3 frame=T 25=T |=T Written=T by=T MDAnalysis=T XYZWriter=T (release=T 2.4.3)=T pbc="F F F"
H       -2.44570000      -7.93673000     -14.95607000
O       -2.82550000      -8.50302000     -15.67638000
H       -3.51741000      -7.92399000     -15.99600000
H       -2.87096000      -7.74933000     -17.75948000
O       -2.93892000      -7.43583000     -18.66294000
H       -2.06770000      -7.64697000     -19.02673000
