6
Properties=species:S:1:pos:R:3 frame=T 52=T |=T Written=T by=T MDAnalysis=T XYZWriter=T (release=T 2.4.3)=T pbc="F F F"
H        3.97531000      -0.44801000       7.34966000
O        4.92041000      -0.31030000       7.51642000
H        4.85674000       0.37536000       8.19497000
H        4.22283000       1.57129000      10.18011000
O        4.09005000       1.89474000       9.27312000
H        4.14880000       2.85586000       9.33096000
