6
Properties=species:S:1:pos:R:3 frame=T 53=T |=T Written=T by=T MDAnalysis=T XYZWriter=T (release=T 2.4.3)=T pbc="F F F"
H       16.32487000     -16.27936000      19.08894000
O       16.20840000     -16.48939000      18.14700000
H       15.34130000     -16.11885000      17.94731000
H       14.10595000     -16.11328000      16.39647000
O       14.21953000     -15.18497000      16.65252000
H       13.47486000     -14.73403000      16.27463000
