6
Properties=species:S:1:pos:R:3 frame=T 5=T |=T Written=T by=T MDAnalysis=T XYZWriter=T (release=T 2.4.3)=T pbc="F F F"
H       -2.22972000       2.56047000     -17.70964000
O       -1.36012000       2.18803000     -17.92734000
H       -1.53069000       1.30256000     -17.58895000
H       -2.96700000       3.43323000     -14.96100000
O       -2.95006000       2.50540000     -15.17463000
H       -2.08339000       2.34474000     -15.54062000
