6
Properties=species:S:1:pos:R:3 frame=T 46=T |=T Written=T by=T MDAnalysis=T XYZWriter=T (release=T 2.4.3)=T pbc="F F F"
H       13.74953000      -6.72441000      -3.54539000
O       13.28609000      -6.03338000      -4.04360000
H       13.93952000      -5.71744000      -4.62986000
H       13.94938000      -4.70614000      -2.90266000
O       13.98956000      -3.88848000      -2.40864000
H       14.92209000      -3.60353000      -2.53531000
