6
Properties=species:S:1:pos:R:3 frame=T 19=T |=T Written=T by=T MDAnalysis=T XYZWriter=T (release=T 2.4.3)=T pbc="F F F"
H       -3.04870000      15.77975000     -10.17425000
O       -3.40714000      14.99325000     -10.58991000
H       -2.95650000      14.26248000     -10.09004000
H       -4.08197000      14.63651000     -12.48019000
O       -4.31088000      13.93447000     -13.12398000
H       -3.72402000      13.23054000     -12.85985000
