6
Properties=species:S:1:pos:R:3 frame=T 51=T |=T Written=T by=T MDAnalysis=T XYZWriter=T (release=T 2.4.3)=T pbc="F F F"
H       -1.84153000     -17.97264000     -16.50879000
O       -2.25851000     -18.83300000     -16.62117000
H       -1.47306000     -19.37181000     -16.58753000
H       -0.38809000     -16.04298000     -16.04866000
O       -0.85833000     -15.94074000     -16.88874000
H       -1.74255000     -15.72609000     -16.59768000
