6
Properties=species:S:1:pos:R:3 frame=T 21=T |=T Written=T by=T MDAnalysis=T XYZWriter=T (release=T 2.4.3)=T pbc="F F F"
H       19.10514000      14.41974000      -3.52661000
O       18.25794000      14.79162000      -3.81481000
H       18.15444000      14.44035000      -4.71356000
H       17.25068000      15.73503000      -6.68971000
O       17.07846000      14.97478000      -6.09189000
H       16.11082000      14.95708000      -6.01426000
