6
Properties=species:S:1:pos:R:3 frame=T 50=T |=T Written=T by=T MDAnalysis=T XYZWriter=T (release=T 2.4.3)=T pbc="F F F"
H       13.04687000      15.98061000     -12.76312000
O       13.13703000      16.27098000     -11.86787000
H       12.48399000      16.98449000     -11.90047000
H       10.72574000      18.58506000     -10.93842000
O       10.87993000      17.94487000     -11.63622000
H        9.99633000      17.76139000     -12.00557000
