6
Properties=species:S:1:pos:R:3 frame=T 29=T |=T Written=T by=T MDAnalysis=T XYZWriter=T (release=T 2.4.3)=T pbc="F F F"
H      -14.46690000      -1.00366000       0.21536000
O      -14.66927000      -0.08702000       0.04334000
H      -15.39167000      -0.15888000      -0.60478000
H      -14.19394000      -3.64799000       0.10754000
O      -13.73600000      -2.83450000      -0.12693000
H      -13.48688000      -3.02482000      -1.03131000
