6
Properties=species:S:1:pos:R:3 frame=T 37=T |=T Written=T by=T MDAnalysis=T XYZWriter=T (release=T 2.4.3)=T pbc="F F F"
H      -16.58604000     -15.72180000       7.80383000
O      -16.93887000     -15.06631000       8.42767000
H      -16.33493000     -15.03517000       9.16242000
H      -18.16313000     -15.59806000       9.67980000
O      -18.60825000     -15.81835000      10.50530000
H      -17.99298000     -16.33604000      11.04551000
