6
Properties=species:S:1:pos:R:3 frame=T 50=T |=T Written=T by=T MDAnalysis=T XYZWriter=T (release=T 2.4.3)=T pbc="F F F"
H      -12.01576000      14.49361000     -16.33384000
O      -11.30448000      13.84260000     -16.18550000
H      -11.04145000      14.04355000     -15.26466000
H      -12.83402000      11.04830000     -14.52886000
O      -12.63733000      11.28057000     -15.44124000
H      -11.94576000      11.94248000     -15.42085000
