6
Properties=species:S:1:pos:R:3 frame=T 41=T |=T Written=T by=T MDAnalysis=T XYZWriter=T (release=T 2.4.3)=T pbc="F F F"
H        5.80669000      -5.89127000     -15.27558000
O        5.27980000      -6.47565000     -14.72429000
H        4.40394000      -6.07641000     -14.63494000
H        6.55687000      -6.22273000     -17.62397000
O        6.75128000      -5.32140000     -17.24482000
H        5.91754000      -4.88624000     -17.41142000
