6
Properties=species:S:1:pos:R:3 frame=T 0=T |=T Written=T by=T MDAnalysis=T XYZWriter=T (release=T 2.4.3)=T pbc="F F F"
H       -5.35969000      16.33962000       4.71295000
O       -5.24084000      16.89006000       3.92466000
H       -6.13008000      16.93812000       3.56418000
H       -8.47851000      16.67396000       4.99564000
O       -8.15521000      16.42823000       4.13231000
H       -8.52924000      17.13933000       3.58258000
