6
Properties=species:S:1:pos:R:3 frame=T 12=T |=T Written=T by=T MDAnalysis=T XYZWriter=T (release=T 2.4.3)=T pbc="F F F"
H      -17.38416000      10.31721000      19.60494000
O      -16.74361000      10.86841000      19.14787000
H      -16.70639000      10.51854000      18.26014000
H      -16.98235000      11.08966000      15.73551000
O      -16.52070000      10.91148000      16.54111000
H      -16.49125000      11.74959000      17.01192000
