6
Properties=species:S:1:pos:R:3 frame=T 50=T |=T Written=T by=T MDAnalysis=T XYZWriter=T (release=T 2.4.3)=T pbc="F F F"
H        4.80788000       9.47782000      -7.99407000
O        3.96666000       9.65612000      -7.55012000
H        4.12186000       9.48259000      -6.58972000
H        5.72346000      10.40767000      -4.98720000
O        5.24309000       9.57949000      -5.16077000
H        5.93550000       8.93743000      -5.04966000
