6
Properties=species:S:1:pos:R:3 frame=T 0=T |=T Written=T by=T MDAnalysis=T XYZWriter=T (release=T 2.4.3)=T pbc="F F F"
H       18.90252000       3.85420000      -5.95838000
O       18.98638000       4.75348000      -6.27372000
H       19.07952000       5.26006000      -5.47756000
H       16.46556000       6.36140000      -7.65634000
O       17.35052000       6.59889000      -7.83456000
H       17.79447000       6.09996000      -7.19703000
