6
Properties=species:S:1:pos:R:3 frame=T 13=T |=T Written=T by=T MDAnalysis=T XYZWriter=T (release=T 2.4.3)=T pbc="F F F"
H      -11.10981000      -4.98176000       6.15759000
O      -10.24517000      -4.65890000       5.85311000
H       -9.61363000      -5.04536000       6.48339000
H      -10.95831000      -1.35028000       6.47478000
O      -10.29596000      -1.72981000       5.88520000
H      -10.24050000      -2.65418000       6.11450000
