6
Properties=species:S:1:pos:R:3 frame=T 21=T |=T Written=T by=T MDAnalysis=T XYZWriter=T (release=T 2.4.3)=T pbc="F F F"
H        0.00550000      17.03660000      -2.33814000
O       -0.61191000      16.57207000      -1.74882000
H       -1.16753000      16.13628000      -2.39709000
H       -2.11737000      15.22323000      -4.40946000
O       -2.27903000      15.93074000      -3.77074000
H       -2.18546000      16.77393000      -4.21892000
