6
Properties=species:S:1:pos:R:3 frame=T 26=T |=T Written=T by=T MDAnalysis=T XYZWriter=T (release=T 2.4.3)=T pbc="F F F"
H       15.00698000     -16.80881000     -17.08204000
O       15.08060000     -17.35125000     -16.27633000
H       15.18323000     -16.69631000     -15.57593000
H       13.48372000     -17.91253000     -16.59096000
O       12.94570000     -18.55944000     -17.11469000
H       12.36679000     -17.98301000     -17.64083000
