6
Properties=species:S:1:pos:R:3 frame=T 2=T |=T Written=T by=T MDAnalysis=T XYZWriter=T (release=T 2.4.3)=T pbc="F F F"
H      -14.29426000      17.33319000       4.94988000
O      -14.96435000      17.76063000       4.36719000
H      -15.62135000      17.05037000       4.25857000
H      -15.48745000      18.15707000       6.63354000
O      -15.87599000      17.70091000       7.37455000
H      -16.80996000      17.87724000       7.30833000
