6
Properties=species:S:1:pos:R:3 frame=T 35=T |=T Written=T by=T MDAnalysis=T XYZWriter=T (release=T 2.4.3)=T pbc="F F F"
H       16.27654000      -8.04235000      -5.26009000
O       16.86720000      -7.96516000      -4.48369000
H       16.33757000      -7.37510000      -3.89100000
H       16.70645000     -10.13984000      -4.45757000
O       17.23680000     -10.94028000      -4.36762000
H       17.95306000     -10.71505000      -3.75867000
