6
Properties=species:S:1:pos:R:3 frame=T 19=T |=T Written=T by=T MDAnalysis=T XYZWriter=T (release=T 2.4.3)=T pbc="F F F"
H      -13.96256000     -17.26922000       0.23706000
O      -13.97270000     -17.71367000      -0.63953000
H      -13.07230000     -17.62400000      -0.99384000
H      -11.68084000     -17.44944000      -2.48779000
O      -11.39193000     -17.27516000      -1.59773000
H      -11.54218000     -16.32701000      -1.54215000
