6
Properties=species:S:1:pos:R:3 frame=T 54=T |=T Written=T by=T MDAnalysis=T XYZWriter=T (release=T 2.4.3)=T pbc="F F F"
H       19.34816000      15.97346000      16.28067000
O       19.01097000      15.83806000      15.42627000
H       18.69395000      14.94143000      15.40434000
H       16.60974000      15.20675000      18.36888000
O       17.52060000      14.94570000      18.19714000
H       17.42554000      14.00402000      17.96125000
