6
Properties=species:S:1:pos:R:3 frame=T 12=T |=T Written=T by=T MDAnalysis=T XYZWriter=T (release=T 2.4.3)=T pbc="F F F"
H      -16.94009000      17.69465000      15.67194000
O      -17.77183000      18.17445000      15.86949000
H      -17.78826000      18.86822000      15.19480000
H      -17.79812000      17.29729000      12.69840000
O      -18.77133000      17.41247000      12.61119000
H      -18.88232000      18.36607000      12.46806000
