6
Properties=species:S:1:pos:R:3 frame=T 31=T |=T Written=T by=T MDAnalysis=T XYZWriter=T (release=T 2.4.3)=T pbc="F F F"
H      -16.36350000      -9.87369000      -8.44259000
O      -16.44574000      -8.90806000      -8.58993000
H      -15.52214000      -8.69599000      -8.71975000
H      -16.68572000     -12.00179000      -7.48004000
O      -15.98683000     -11.78675000      -8.12730000
H      -15.22107000     -12.33750000      -7.89279000
