6
Properties=species:S:1:pos:R:3 frame=T 24=T |=T Written=T by=T MDAnalysis=T XYZWriter=T (release=T 2.4.3)=T pbc="F F F"
H       19.37585000     -10.23311000       9.80361000
O       18.48290000     -10.00999000       9.49729000
H       18.56971000      -9.49793000       8.67319000
H       17.45880000     -10.89372000       6.76751000
O       17.15784000     -11.48742000       7.44162000
H       17.86096000     -11.37093000       8.11252000
