6
Properties=species:S:1:pos:R:3 frame=T 42=T |=T Written=T by=T MDAnalysis=T XYZWriter=T (release=T 2.4.3)=T pbc="F F F"
H        6.05298000     -10.40492000      12.11975000
O        5.81405000      -9.47098000      12.33882000
H        4.94893000      -9.40501000      11.95479000
H        5.91407000     -12.63309000      11.32619000
O        5.06538000     -12.32425000      11.64346000
H        4.59774000     -12.29710000      10.80525000
