6
Properties=species:S:1:pos:R:3 frame=T 32=T |=T Written=T by=T MDAnalysis=T XYZWriter=T (release=T 2.4.3)=T pbc="F F F"
H       -2.63717000     -15.61282000      -1.85550000
O       -2.01971000     -16.23538000      -1.42450000
H       -1.25207000     -16.11529000      -2.03984000
H       -3.34354000     -13.46677000      -3.12242000
O       -2.90914000     -13.94869000      -2.43080000
H       -2.06360000     -13.52581000      -2.34188000
