6
Properties=species:S:1:pos:R:3 frame=T 50=T |=T Written=T by=T MDAnalysis=T XYZWriter=T (release=T 2.4.3)=T pbc="F F F"
H       16.09743000      15.22189000      -4.43474000
O       17.06621000      15.17026000      -4.54775000
H       17.35039000      14.25822000      -4.64852000
H       14.84038000      16.34391000      -2.74310000
O       14.59035000      15.70695000      -3.40654000
H       13.91430000      15.17578000      -2.94571000
