6
Properties=species:S:1:pos:R:3 frame=T 18=T |=T Written=T by=T MDAnalysis=T XYZWriter=T (release=T 2.4.3)=T pbc="F F F"
H       -8.92666000      -6.65627000      16.12541000
O       -8.86855000      -6.09012000      16.88578000
H       -9.66844000      -5.55941000      16.81610000
H       -8.07901000      -8.03551000      14.39355000
O       -7.74046000      -7.28007000      14.90357000
H       -6.89916000      -7.03965000      14.46002000
