6
Properties=species:S:1:pos:R:3 frame=T 28=T |=T Written=T by=T MDAnalysis=T XYZWriter=T (release=T 2.4.3)=T pbc="F F F"
H       -5.67704000     -10.61420000       6.65767000
O       -5.56044000     -10.21577000       5.80982000
H       -5.82928000     -10.88743000       5.16162000
H       -2.64960000     -11.01033000       6.09088000
O       -2.83335000     -10.23766000       5.59371000
H       -3.74791000     -10.06981000       5.79907000
