6
Properties=species:S:1:pos:R:3 frame=T 14=T |=T Written=T by=T MDAnalysis=T XYZWriter=T (release=T 2.4.3)=T pbc="F F F"
H        0.95865000     -13.77964000       1.76281000
O        0.75044000     -12.86696000       1.56683000
H        0.12497000     -12.93059000       0.83993000
H        2.08768000     -15.69088000       3.46563000
O        2.05647000     -15.04040000       2.74692000
H        2.07146000     -14.21840000       3.25175000
