6
Properties=species:S:1:pos:R:3 frame=T 18=T |=T Written=T by=T MDAnalysis=T XYZWriter=T (release=T 2.4.3)=T pbc="F F F"
H       -8.29164000       6.35317000     -18.64925000
O       -8.33370000       5.37021000     -18.66638000
H       -9.21089000       5.12387000     -19.02711000
H       -7.09552000       4.14968000     -17.76860000
O       -6.14702000       4.15801000     -17.58581000
H       -6.05498000       4.77319000     -16.87241000
