6
Properties=species:S:1:pos:R:3 frame=T 41=T |=T Written=T by=T MDAnalysis=T XYZWriter=T (release=T 2.4.3)=T pbc="F F F"
H      -17.74868000       9.77182000       3.97391000
O      -16.84855000      10.12820000       3.99715000
H      -16.94017000      11.02938000       4.35831000
H      -16.46767000       8.18285000       1.25873000
O      -16.84092000       9.07535000       1.11962000
H      -16.87078000       9.48094000       1.98872000
