6
Properties=species:S:1:pos:R:3 frame=T 14=T |=T Written=T by=T MDAnalysis=T XYZWriter=T (release=T 2.4.3)=T pbc="F F F"
H       13.99114000      -4.88465000       2.98609000
O       13.34394000      -5.55638000       2.80509000
H       13.38126000      -5.72875000       1.86969000
H       11.61462000      -4.83957000       2.94229000
O       10.94962000      -4.21428000       3.30984000
H       11.49394000      -3.72371000       3.96473000
