6
Properties=species:S:1:pos:R:3 frame=T 24=T |=T Written=T by=T MDAnalysis=T XYZWriter=T (release=T 2.4.3)=T pbc="F F F"
H       14.74199000      -3.17967000       8.88477000
O       14.98296000      -3.10024000       7.94302000
H       14.32762000      -3.71018000       7.52524000
H       12.60015000      -4.95029000       7.03983000
O       13.02767000      -4.27704000       6.48196000
H       12.47712000      -3.52413000       6.59424000
