6
Properties=species:S:1:pos:R:3 frame=T 24=T |=T Written=T by=T MDAnalysis=T XYZWriter=T (release=T 2.4.3)=T pbc="F F F"
H      -18.64047000       5.27997000      -2.32644000
O      -18.01381000       5.95146000      -2.04928000
H      -17.71016000       6.28795000      -2.90549000
H      -16.98890000       5.05997000      -0.64737000
O      -16.59686000       4.70032000       0.14722000
H      -15.68312000       4.87637000       0.02697000
