6
Properties=species:S:1:pos:R:3 frame=T 3=T |=T Written=T by=T MDAnalysis=T XYZWriter=T (release=T 2.4.3)=T pbc="F F F"
H        3.18137000       2.32572000     -11.55919000
O        3.14788000       2.10244000     -10.60528000
H        2.40821000       1.50757000     -10.54068000
H        4.08896000       0.46742000      -9.70575000
O        5.00686000       0.24712000      -9.51805000
H        5.43243000       0.55477000     -10.32040000
