6
Properties=species:S:1:pos:R:3 frame=T 28=T |=T Written=T by=T MDAnalysis=T XYZWriter=T (release=T 2.4.3)=T pbc="F F F"
H       17.63419000     -10.14565000      13.32947000
O       17.58118000      -9.35328000      13.90534000
H       16.65997000      -9.09261000      13.83603000
H       19.31575000     -10.90596000      16.47083000
O       18.39414000     -10.81930000      16.22455000
H       18.48074000     -10.17320000      15.53438000
