6
Properties=species:S:1:pos:R:3 frame=T 27=T |=T Written=T by=T MDAnalysis=T XYZWriter=T (release=T 2.4.3)=T pbc="F F F"
H       17.56949000      -1.11177000     -15.49674000
O       16.65590000      -1.21691000     -15.81524000
H       16.21161000      -0.41511000     -15.53503000
H       17.14365000      -3.13381000     -15.81964000
O       17.89161000      -3.59656000     -16.18219000
H       17.87561000      -4.42577000     -15.71260000
