6
Properties=species:S:1:pos:R:3 frame=T 16=T |=T Written=T by=T MDAnalysis=T XYZWriter=T (release=T 2.4.3)=T pbc="F F F"
H       11.17821000     -14.21760000       5.22558000
O       10.58431000     -14.50290000       5.89156000
H       10.97622000     -15.32237000       6.16699000
H       13.32366000     -12.66102000       6.51492000
O       12.64653000     -12.02035000       6.18132000
H       11.98333000     -12.58717000       5.81286000
