6
Properties=species:S:1:pos:R:3 frame=T 23=T |=T Written=T by=T MDAnalysis=T XYZWriter=T (release=T 2.4.3)=T pbc="F F F"
H       -2.14164000     -15.37037000       5.34804000
O       -2.77780000     -15.99868000       4.98471000
H       -2.53577000     -16.11841000       4.08052000
H       -3.58532000     -18.96573000       6.51034000
O       -2.94721000     -18.68832000       5.80487000
H       -3.10910000     -17.76586000       5.63697000
