6
Properties=species:S:1:pos:R:3 frame=T 10=T |=T Written=T by=T MDAnalysis=T XYZWriter=T (release=T 2.4.3)=T pbc="F F F"
H       -1.17953000     -13.31199000      11.82842000
O       -0.67088000     -13.67707000      11.12175000
H       -1.31692000     -14.25474000      10.74683000
H        0.33822000     -11.94619000      11.33401000
O        0.42126000     -11.12525000      10.85575000
H        1.37336000     -11.05420000      10.72682000
