6
Properties=species:S:1:pos:R:3 frame=T 53=T |=T Written=T by=T MDAnalysis=T XYZWriter=T (release=T 2.4.3)=T pbc="F F F"
H      -12.58682000      19.55799000      14.11131000
O      -12.59909000      18.86766000      14.76476000
H      -12.77454000      18.04286000      14.32525000
H      -12.74522000      15.78250000      15.05382000
O      -12.46205000      16.23604000      14.25165000
H      -11.63617000      16.64008000      14.53957000
