6
Properties=species:S:1:pos:R:3 frame=T 27=T |=T Written=T by=T MDAnalysis=T XYZWriter=T (release=T 2.4.3)=T pbc="F F F"
H       12.74026000       7.12438000      10.40145000
O       12.04200000       6.84555000       9.80921000
H       12.06369000       5.88226000       9.78886000
H       10.15800000       6.70094000      10.19297000
O        9.31886000       6.23732000       9.94645000
H        9.59519000       5.34937000       9.70646000
