6
Properties=species:S:1:pos:R:3 frame=T 48=T |=T Written=T by=T MDAnalysis=T XYZWriter=T (release=T 2.4.3)=T pbc="F F F"
H       -1.33024000      15.63727000     -14.89209000
O       -2.08805000      15.51011000     -15.45716000
H       -1.88416000      16.04278000     -16.23155000
H       -0.03861000      14.30437000     -13.04365000
O       -0.26653000      14.52322000     -13.96838000
H       -0.93079000      13.86155000     -14.30216000
