6
Properties=species:S:1:pos:R:3 frame=T 13=T |=T Written=T by=T MDAnalysis=T XYZWriter=T (release=T 2.4.3)=T pbc="F F F"
H       -6.48185000     -14.34441000      13.38107000
O       -7.16638000     -14.11001000      12.76247000
H       -7.38662000     -13.19288000      12.93133000
H       -8.10476000     -10.90181000      12.60157000
O       -8.38427000     -11.68573000      12.10218000
H       -9.32183000     -11.75005000      12.21527000
