6
Properties=species:S:1:pos:R:3 frame=T 11=T |=T Written=T by=T MDAnalysis=T XYZWriter=T (release=T 2.4.3)=T pbc="F F F"
H        1.51769000      -0.53807000      18.27431000
O        1.52860000      -1.35761000      17.72214000
H        1.57755000      -0.92611000      16.86933000
H        0.69794000       0.79406000      16.24355000
O        1.53854000       0.87727000      15.80666000
H        1.22820000       0.82745000      14.88418000
