6
Properties=species:S:1:pos:R:3 frame=T 15=T |=T Written=T by=T MDAnalysis=T XYZWriter=T (release=T 2.4.3)=T pbc="F F F"
H      -15.38988000      -8.32462000     -17.47112000
O      -15.12342000      -8.13870000     -16.55126000
H      -15.14017000      -7.16686000     -16.44211000
H      -15.15809000     -10.38005000     -17.54983000
O      -14.97138000     -11.17639000     -17.00307000
H      -15.48587000     -11.02374000     -16.16013000
