6
Properties=species:S:1:pos:R:3 frame=T 21=T |=T Written=T by=T MDAnalysis=T XYZWriter=T (release=T 2.4.3)=T pbc="F F F"
H       12.71684000      10.51662000      -7.62432000
O       13.46906000      10.17747000      -8.10954000
H       13.11168000       9.80657000      -8.91108000
H       11.54067000       8.95373000     -10.77300000
O       11.90318000       8.69431000      -9.92071000
H       11.31013000       8.00595000      -9.54860000
