6
Properties=species:S:1:pos:R:3 frame=T 39=T |=T Written=T by=T MDAnalysis=T XYZWriter=T (release=T 2.4.3)=T pbc="F F F"
H       12.37800000       1.80115000     -12.07725000
O       11.76926000       2.35427000     -12.54141000
H       10.97196000       2.23147000     -12.00424000
H        9.03548000       3.46173000     -12.67071000
O        9.40429000       3.14992000     -11.83770000
H        8.66316000       3.08258000     -11.20973000
