6
Properties=species:S:1:pos:R:3 frame=T 14=T |=T Written=T by=T MDAnalysis=T XYZWriter=T (release=T 2.4.3)=T pbc="F F F"
H        4.87191000      -3.61806000      11.46639000
O        4.97676000      -4.56189000      11.33818000
H        5.92033000      -4.70692000      11.43112000
H        5.66776000      -4.57547000       9.58155000
O        5.66326000      -5.16605000       8.81534000
H        6.55244000      -5.11747000       8.49013000
