6
Properties=species:S:1:pos:R:3 frame=T 11=T |=T Written=T by=T MDAnalysis=T XYZWriter=T (release=T 2.4.3)=T pbc="F F F"
H        3.60524000      10.42492000     -17.73408000
O        2.90946000      10.10962000     -18.32556000
H        3.32455000      10.16954000     -19.19975000
H        2.42883000       8.61231000     -15.22505000
O        1.88844000       8.68200000     -16.05997000
H        2.55015000       9.01935000     -16.67102000
