6
Properties=species:S:1:pos:R:3 frame=T 41=T |=T Written=T by=T MDAnalysis=T XYZWriter=T (release=T 2.4.3)=T pbc="F F F"
H       -7.47495000     -12.98710000      18.46708000
O       -7.88991000     -13.81428000      18.29047000
H       -8.38922000     -13.67754000      17.47302000
H      -10.24884000     -14.92606000      16.14053000
O       -9.53568000     -14.28846000      16.22230000
H       -9.16432000     -14.24082000      15.35314000
