6
Properties=species:S:1:pos:R:3 frame=T 51=T |=T Written=T by=T MDAnalysis=T XYZWriter=T (release=T 2.4.3)=T pbc="F F F"
H      -16.90319000       7.59955000      -3.88259000
O      -16.67159000       7.46518000      -2.94864000
H      -17.48259000       7.50405000      -2.45736000
H      -18.02137000       8.47372000      -5.26279000
O      -17.23400000       7.98217000      -5.49733000
H      -17.60734000       7.26867000      -6.02201000
