6
Properties=species:S:1:pos:R:3 frame=T 49=T |=T Written=T by=T MDAnalysis=T XYZWriter=T (release=T 2.4.3)=T pbc="F F F"
H        4.43063000      -9.25465000       8.05172000
O        4.54417000      -9.78539000       8.86325000
H        3.66738000      -9.77797000       9.24608000
H        5.14777000     -11.60367000       8.48333000
O        5.72562000     -12.33139000       8.29181000
H        5.19893000     -13.10333000       8.52100000
