6
Properties=species:S:1:pos:R:3 frame=T 38=T |=T Written=T by=T MDAnalysis=T XYZWriter=T (release=T 2.4.3)=T pbc="F F F"
H        4.09820000       5.66734000      -1.01540000
O        3.99971000       5.78420000      -0.04146000
H        4.83023000       6.16183000       0.26337000
H        2.01313000       5.71153000      -2.46584000
O        1.76267000       6.55351000      -1.97048000
H        0.79578000       6.48953000      -1.83738000
