6
Properties=species:S:1:pos:R:3 frame=T 1=T |=T Written=T by=T MDAnalysis=T XYZWriter=T (release=T 2.4.3)=T pbc="F F F"
H        5.65808000      -1.59912000      11.63800000
O        6.51092000      -1.80441000      11.26657000
H        7.03180000      -0.98863000      11.46458000
H        8.40419000      -1.22439000      12.77547000
O        8.24909000      -0.31559000      12.50261000
H        7.48216000      -0.12423000      13.01334000
