6
Properties=species:S:1:pos:R:3 frame=T 20=T |=T Written=T by=T MDAnalysis=T XYZWriter=T (release=T 2.4.3)=T pbc="F F F"
H      -14.48105000     -15.66253000     -18.00579000
O      -14.61612000     -16.20437000     -17.21368000
H      -14.90166000     -15.55371000     -16.59441000
H      -16.66707000     -14.93394000     -16.62871000
O      -16.19458000     -14.39750000     -15.99949000
H      -15.75999000     -13.77778000     -16.56188000
