6
Properties=species:S:1:pos:R:3 frame=T 41=T |=T Written=T by=T MDAnalysis=T XYZWriter=T (release=T 2.4.3)=T pbc="F F F"
H      -11.51259000     -13.21845000      -5.41636000
O      -11.27776000     -14.04400000      -5.82489000
H      -10.75204000     -14.49749000      -5.13554000
H      -10.15706000     -11.90278000      -4.70822000
O      -11.03742000     -11.59091000      -4.99274000
H      -11.63487000     -11.95314000      -4.32028000
