6
Properties=species:S:1:pos:R:3 frame=T 29=T |=T Written=T by=T MDAnalysis=T XYZWriter=T (release=T 2.4.3)=T pbc="F F F"
H        3.28626000      -5.22564000     -10.71357000
O        3.02290000      -4.29818000     -10.80512000
H        2.10630000      -4.32336000     -11.21200000
H        5.53973000      -3.70765000      -9.97854000
O        4.94000000      -3.42346000      -9.29151000
H        4.04578000      -3.59964000      -9.64682000
