6
Properties=species:S:1:pos:R:3 frame=T 25=T |=T Written=T by=T MDAnalysis=T XYZWriter=T (release=T 2.4.3)=T pbc="F F F"
H       -3.94876000     -10.25518000      -3.32112000
O       -3.50574000     -10.72141000      -2.65077000
H       -3.30987000     -10.01489000      -2.02044000
H       -3.98573000     -10.16722000      -5.99819000
O       -4.25284000      -9.93420000      -5.11220000
H       -4.65794000      -9.09406000      -5.26499000
