6
Properties=species:S:1:pos:R:3 frame=T 20=T |=T Written=T by=T MDAnalysis=T XYZWriter=T (release=T 2.4.3)=T pbc="F F F"
H        9.43133000      14.65308000       5.81659000
O        9.41407000      14.31401000       6.75104000
H        8.60787000      13.76449000       6.72833000
H        9.34839000      13.60567000       8.32966000
O        9.51299000      13.53206000       9.28828000
H        9.16749000      12.64986000       9.44162000
