6
Properties=species:S:1:pos:R:3 frame=T 31=T |=T Written=T by=T MDAnalysis=T XYZWriter=T (release=T 2.4.3)=T pbc="F F F"
H      -16.72900000      -8.21838000      -4.23144000
O      -15.98440000      -7.84602000      -3.72224000
H      -16.39675000      -7.54815000      -2.89432000
H      -15.32348000     -10.42659000      -5.76286000
O      -14.88252000      -9.62291000      -5.50603000
H      -15.48995000      -9.21747000      -4.86844000
