6
Properties=species:S:1:pos:R:3 frame=T 13=T |=T Written=T by=T MDAnalysis=T XYZWriter=T (release=T 2.4.3)=T pbc="F F F"
H       -1.09814000     -17.11205000      15.82731000
O       -1.99832000     -17.38565000      16.13768000
H       -2.27265000     -17.99049000      15.40320000
H       -2.79172000     -19.21336000      18.70739000
O       -2.16919000     -18.50294000      18.84175000
H       -1.96477000     -18.28629000      17.93014000
