6
Properties=species:S:1:pos:R:3 frame=T 14=T |=T Written=T by=T MDAnalysis=T XYZWriter=T (release=T 2.4.3)=T pbc="F F F"
H       -8.58267000       3.21182000     -18.76460000
O       -9.46491000       2.91137000     -18.48905000
H       -9.54369000       3.16853000     -17.54919000
H      -11.93332000       5.47284000     -17.53334000
O      -11.87300000       4.51398000     -17.63691000
H      -11.00710000       4.20420000     -17.28985000
