6
Properties=species:S:1:pos:R:3 frame=T 26=T |=T Written=T by=T MDAnalysis=T XYZWriter=T (release=T 2.4.3)=T pbc="F F F"
H       17.35640000      13.18971000      -5.24979000
O       16.49530000      13.59438000      -5.28060000
H       16.66406000      14.51017000      -5.58201000
H       18.66006000      12.14971000      -3.50502000
O       18.09941000      11.37922000      -3.68676000
H       18.12240000      11.19081000      -4.64992000
