6
Properties=species:S:1:pos:R:3 frame=T 47=T |=T Written=T by=T MDAnalysis=T XYZWriter=T (release=T 2.4.3)=T pbc="F F F"
H        1.77749000     -10.98955000     -13.28411000
O        1.04356000     -10.74291000     -12.69591000
H        0.39605000     -11.45323000     -12.84495000
H        0.54859000     -13.94313000     -11.81341000
O        0.46367000     -13.28426000     -12.53080000
H        0.74344000     -13.77516000     -13.29398000
