6
Properties=species:S:1:pos:R:3 frame=T 34=T |=T Written=T by=T MDAnalysis=T XYZWriter=T (release=T 2.4.3)=T pbc="F F F"
H       16.74003000     -15.51792000      13.68319000
O       16.18552000     -15.84621000      12.98474000
H       16.44898000     -16.78729000      12.89619000
H       16.94118000     -15.03120000      15.87936000
O       17.26091000     -14.49355000      15.13217000
H       18.06126000     -15.00076000      14.92004000
