6
Properties=species:S:1:pos:R:3 frame=T 18=T |=T Written=T by=T MDAnalysis=T XYZWriter=T (release=T 2.4.3)=T pbc="F F F"
H      -18.25528000     -17.59275000       9.66959000
O      -17.44630000     -18.03046000       9.39713000
H      -17.23643000     -17.49912000       8.62176000
H      -14.82142000     -17.81861000      11.65409000
O      -15.78070000     -17.98752000      11.68023000
H      -16.05887000     -17.74651000      10.77333000
