6
Properties=species:S:1:pos:R:3 frame=T 3=T |=T Written=T by=T MDAnalysis=T XYZWriter=T (release=T 2.4.3)=T pbc="F F F"
H        0.25341000       5.51094000      -3.01582000
O        0.18339000       5.58555000      -3.98470000
H        0.67242000       4.80781000      -4.30063000
H        1.23567000       8.48257000      -5.49147000
O        1.72013000       7.76188000      -5.02783000
H        1.05864000       7.09423000      -4.91906000
