6
Properties=species:S:1:pos:R:3 frame=T 2=T |=T Written=T by=T MDAnalysis=T XYZWriter=T (release=T 2.4.3)=T pbc="F F F"
H       15.92016000      11.15125000       0.38650000
O       15.34949000      11.56691000      -0.28681000
H       15.07642000      10.87379000      -0.86986000
H       17.20719000       9.41689000       0.78416000
O       17.79507000      10.14145000       0.97339000
H       17.40095000      10.43960000       1.79145000
