6
Properties=species:S:1:pos:R:3 frame=T 28=T |=T Written=T by=T MDAnalysis=T XYZWriter=T (release=T 2.4.3)=T pbc="F F F"
H       14.06945000      19.06044000     -10.18420000
O       14.84767000      18.80080000      -9.66497000
H       14.42655000      18.78736000      -8.81196000
H       18.05218000      18.59235000      -9.68573000
O       17.36491000      18.06914000     -10.10709000
H       16.52368000      18.44058000      -9.79691000
