6
Properties=species:S:1:pos:R:3 frame=T 50=T |=T Written=T by=T MDAnalysis=T XYZWriter=T (release=T 2.4.3)=T pbc="F F F"
H        6.26569000      -8.72468000     -10.88560000
O        5.62799000      -8.82640000     -11.60109000
H        6.17694000      -8.70049000     -12.41285000
H        5.89537000      -7.82595000     -14.93380000
O        6.32537000      -8.37591000     -14.22210000
H        6.14120000      -9.26637000     -14.59198000
