6
Properties=species:S:1:pos:R:3 frame=T 25=T |=T Written=T by=T MDAnalysis=T XYZWriter=T (release=T 2.4.3)=T pbc="F F F"
H        5.48628000     -11.24738000      -2.02804000
O        4.86576000     -10.88703000      -2.68233000
H        4.57010000     -10.08794000      -2.17886000
H        5.38453000      -8.44701000      -1.72943000
O        4.60994000      -8.05979000      -2.14626000
H        4.00531000      -7.86358000      -1.41921000
