6
Properties=species:S:1:pos:R:3 frame=T 49=T |=T Written=T by=T MDAnalysis=T XYZWriter=T (release=T 2.4.3)=T pbc="F F F"
H       -6.71953000      -0.13910000       0.89431000
O       -6.10337000       0.42952000       0.42037000
H       -6.13865000       1.26753000       0.92697000
H       -3.61980000      -0.78764000       1.35549000
O       -3.76139000      -1.11283000       0.47330000
H       -4.53467000      -0.58348000       0.14392000
