6
Properties=species:S:1:pos:R:3 frame=T 40=T |=T Written=T by=T MDAnalysis=T XYZWriter=T (release=T 2.4.3)=T pbc="F F F"
H       -4.28677000     -17.14320000      15.93988000
O       -4.06426000     -17.74879000      16.64449000
H       -4.31507000     -18.63298000      16.30742000
H       -5.56431000     -16.31141000      13.98335000
O       -5.17877000     -17.16368000      14.21854000
H       -5.95382000     -17.74872000      14.16392000
