6
Properties=species:S:1:pos:R:3 frame=T 47=T |=T Written=T by=T MDAnalysis=T XYZWriter=T (release=T 2.4.3)=T pbc="F F F"
H        3.52747000      10.91588000      15.77432000
O        2.88120000      10.50491000      15.18868000
H        2.57002000      11.23021000      14.67028000
H        3.86008000      13.26736000      16.48230000
O        4.53549000      12.61378000      16.52866000
H        5.27640000      13.09725000      16.92857000
