6
Properties=species:S:1:pos:R:3 frame=T 23=T |=T Written=T by=T MDAnalysis=T XYZWriter=T (release=T 2.4.3)=T pbc="F F F"
H       -7.70165000       7.67672000      -4.94481000
O       -8.60510000       7.54254000      -4.59969000
H       -8.45851000       7.71885000      -3.64385000
H       -8.55219000       5.80435000      -4.79360000
O       -8.64093000       4.86597000      -4.79739000
H       -9.14802000       4.66843000      -3.98654000
