6
Properties=species:S:1:pos:R:3 frame=T 40=T |=T Written=T by=T MDAnalysis=T XYZWriter=T (release=T 2.4.3)=T pbc="F F F"
H       -3.69948000       0.32672000       5.81842000
O       -2.98002000       0.43391000       5.18244000
H       -3.27267000      -0.20204000       4.50694000
H       -0.59006000      -1.27747000       5.20005000
O       -0.56257000      -0.41867000       5.64059000
H       -1.36776000       0.04739000       5.33987000
