6
Properties=species:S:1:pos:R:3 frame=T 12=T |=T Written=T by=T MDAnalysis=T XYZWriter=T (release=T 2.4.3)=T pbc="F F F"
H       15.25374000       2.63648000       0.44615000
O       14.48900000       2.51833000      -0.11123000
H       14.45084000       1.55493000      -0.19938000
H       13.24468000      -0.26084000      -0.45888000
O       13.38590000       0.35132000      -1.17297000
H       12.52335000       0.23049000      -1.60602000
