6
Properties=species:S:1:pos:R:3 frame=T 6=T |=T Written=T by=T MDAnalysis=T XYZWriter=T (release=T 2.4.3)=T pbc="F F F"
H      -18.10721000     -16.41379000      -9.57027000
O      -18.99267000     -16.27246000      -9.96210000
H      -19.06855000     -16.87488000     -10.68405000
H      -18.32425000     -13.34164000     -10.71524000
O      -17.87027000     -14.07850000     -11.06917000
H      -18.33614000     -14.86572000     -10.71578000
