6
Properties=species:S:1:pos:R:3 frame=T 20=T |=T Written=T by=T MDAnalysis=T XYZWriter=T (release=T 2.4.3)=T pbc="F F F"
H       10.35113000     -14.93448000       7.62265000
O        9.41079000     -14.90158000       7.78126000
H        9.02019000     -14.64380000       6.92664000
H        8.40654000     -14.45955000       5.11162000
O        7.61687000     -14.62059000       5.64332000
H        7.42680000     -13.70920000       5.90025000
