6
Properties=species:S:1:pos:R:3 frame=T 42=T |=T Written=T by=T MDAnalysis=T XYZWriter=T (release=T 2.4.3)=T pbc="F F F"
H       -4.45555000       7.55568000       1.48828000
O       -4.06612000       7.97454000       2.26572000
H       -4.48930000       8.84300000       2.36436000
H       -3.54623000       6.87433000      -0.89518000
O       -4.15429000       7.63058000      -0.81612000
H       -3.51181000       8.31080000      -0.57280000
