6
Properties=species:S:1:pos:R:3 frame=T 13=T |=T Written=T by=T MDAnalysis=T XYZWriter=T (release=T 2.4.3)=T pbc="F F F"
H       -8.49148000     -17.51834000     -12.20375000
O       -9.38671000     -17.88298000     -12.18647000
H       -9.87162000     -17.41916000     -12.90266000
H      -10.76458000     -17.10405000     -10.89434000
O      -10.94084000     -16.38897000     -10.27429000
H      -11.07980000     -15.62435000     -10.84919000
