6
Properties=species:S:1:pos:R:3 frame=T 26=T |=T Written=T by=T MDAnalysis=T XYZWriter=T (release=T 2.4.3)=T pbc="F F F"
H        1.67291000       5.26119000       0.53584000
O        0.80827000       5.53844000       0.21705000
H        0.86500000       6.50520000       0.05989000
H        2.96220000       3.51477000      -0.64544000
O        2.44932000       3.45951000       0.20053000
H        1.48026000       3.45600000      -0.00006000
