6
Properties=species:S:1:pos:R:3 frame=T 6=T |=T Written=T by=T MDAnalysis=T XYZWriter=T (release=T 2.4.3)=T pbc="F F F"
H       16.80891000      -8.14729000     -13.23681000
O       17.65310000      -8.01116000     -13.63949000
H       17.85444000      -7.07248000     -13.51119000
H       18.44462000      -5.96137000     -12.18622000
O       18.23908000      -5.39248000     -12.95472000
H       19.11425000      -5.07300000     -13.20519000
