6
Properties=species:S:1:pos:R:3 frame=T 16=T |=T Written=T by=T MDAnalysis=T XYZWriter=T (release=T 2.4.3)=T pbc="F F F"
H        5.01577000     -16.28023000      19.19735000
O        4.34012000     -16.88291000      18.80626000
H        4.81437000     -17.27094000      18.07372000
H        1.89661000     -19.11636000      18.17673000
O        2.07770000     -18.19987000      17.90223000
H        2.80896000     -17.90771000      18.48142000
