6
Properties=species:S:1:pos:R:3 frame=T 18=T |=T Written=T by=T MDAnalysis=T XYZWriter=T (release=T 2.4.3)=T pbc="F F F"
H        8.86240000     -12.36975000       1.11603000
O        9.54313000     -12.14863000       1.73784000
H        9.08852000     -11.63461000       2.44359000
H        9.79482000     -11.74966000      -0.29160000
O        9.71275000     -11.17950000      -1.08432000
H       10.24672000     -11.66635000      -1.69569000
