6
Properties=species:S:1:pos:R:3 frame=T 7=T |=T Written=T by=T MDAnalysis=T XYZWriter=T (release=T 2.4.3)=T pbc="F F F"
H       16.82691000       4.29333000      17.59303000
O       16.22167000       3.98331000      18.30086000
H       16.16920000       3.04139000      18.18292000
H       14.82835000       5.49811000      15.84071000
O       14.53238000       5.52971000      16.75436000
H       15.09657000       4.90479000      17.17963000
