6
Properties=species:S:1:pos:R:3 frame=T 10=T |=T Written=T by=T MDAnalysis=T XYZWriter=T (release=T 2.4.3)=T pbc="F F F"
H       -1.85442000       2.06056000      15.96115000
O       -2.12209000       2.93935000      16.24444000
H       -2.67810000       2.72710000      16.98989000
H        0.29588000       5.01266000      15.36157000
O        0.33577000       4.30099000      15.99719000
H       -0.59664000       4.04809000      16.00340000
