6
Properties=species:S:1:pos:R:3 frame=T 20=T |=T Written=T by=T MDAnalysis=T XYZWriter=T (release=T 2.4.3)=T pbc="F F F"
H       19.08260000      14.84189000      -0.65943000
O       18.79090000      14.17517000      -0.02208000
H       18.19895000      13.67233000      -0.61433000
H       16.82168000      14.80799000       1.81786000
O       17.09728000      15.69306000       1.63294000
H       17.94910000      15.54095000       1.20120000
