6
Properties=species:S:1:pos:R:3 frame=T 8=T |=T Written=T by=T MDAnalysis=T XYZWriter=T (release=T 2.4.3)=T pbc="F F F"
H        0.25764000       9.76608000     -13.63662000
O        0.52168000       9.05558000     -13.05979000
H        0.89822000       9.52038000     -12.28925000
H        1.10801000       9.01601000     -10.28584000
O        2.06984000       8.90817000     -10.17095000
H        2.49966000       9.58249000     -10.75232000
