6
Properties=species:S:1:pos:R:3 frame=T 8=T |=T Written=T by=T MDAnalysis=T XYZWriter=T (release=T 2.4.3)=T pbc="F F F"
H       -4.26354000      -7.96211000     -17.13804000
O       -3.64187000      -8.64298000     -16.84326000
H       -4.09847000      -8.93200000     -16.04698000
H       -4.95138000      -6.14535000     -16.46463000
O       -5.19127000      -6.22031000     -15.52473000
H       -5.54380000      -5.35056000     -15.30572000
