6
Properties=species:S:1:pos:R:3 frame=T 28=T |=T Written=T by=T MDAnalysis=T XYZWriter=T (release=T 2.4.3)=T pbc="F F F"
H        7.26541000      -7.27808000      -2.95864000
O        7.99027000      -6.82422000      -3.37877000
H        8.52891000      -7.53746000      -3.73741000
H        8.22928000      -6.02080000      -1.65055000
O        7.54181000      -5.54309000      -1.17336000
H        7.51891000      -4.65133000      -1.57585000
