6
Properties=species:S:1:pos:R:3 frame=T 1=T |=T Written=T by=T MDAnalysis=T XYZWriter=T (release=T 2.4.3)=T pbc="F F F"
H       -0.72240000     -13.40067000      15.85554000
O       -0.47260000     -14.35546000      15.88740000
H       -1.17143000     -14.74275000      16.38355000
H        0.69754000     -12.53264000      15.09862000
O       -0.02480000     -11.93148000      14.95288000
H       -0.15309000     -11.90096000      13.98389000
