6
Properties=species:S:1:pos:R:3 frame=T 25=T |=T Written=T by=T MDAnalysis=T XYZWriter=T (release=T 2.4.3)=T pbc="F F F"
H        3.04387000     -17.00423000      14.65188000
O        3.07788000     -16.06664000      14.90552000
H        2.29002000     -15.95884000      15.47301000
H        0.79498000     -18.66260000      14.44460000
O        1.76502000     -18.63778000      14.35100000
H        1.83626000     -18.55639000      13.39933000
