6
Properties=species:S:1:pos:R:3 frame=T 40=T |=T Written=T by=T MDAnalysis=T XYZWriter=T (release=T 2.4.3)=T pbc="F F F"
H       12.83219000      -0.25644000     -15.72305000
O       12.88729000      -1.01016000     -16.32189000
H       12.26795000      -1.62016000     -15.93103000
H       10.53663000      -2.70866000     -14.18933000
O       11.24363000      -3.19509000     -14.68172000
H       12.09155000      -2.96310000     -14.27925000
