6
Properties=species:S:1:pos:R:3 frame=T 28=T |=T Written=T by=T MDAnalysis=T XYZWriter=T (release=T 2.4.3)=T pbc="F F F"
H        5.69254000       9.35517000      -7.27608000
O        4.96409000       9.94568000      -7.58680000
H        5.45527000      10.79428000      -7.63793000
H        3.66484000       9.55437000      -6.29230000
O        2.98986000       9.86082000      -5.65703000
H        3.16561000      10.80937000      -5.60704000
