6
Properties=species:S:1:pos:R:3 frame=T 21=T |=T Written=T by=T MDAnalysis=T XYZWriter=T (release=T 2.4.3)=T pbc="F F F"
H       12.00650000       1.46572000     -15.48874000
O       12.21331000       2.27730000     -15.00118000
H       13.08000000       2.09025000     -14.67722000
H       12.04974000       1.59062000     -12.90555000
O       11.92106000       1.66190000     -11.92817000
H       11.90447000       0.73957000     -11.70366000
