6
Properties=species:S:1:pos:R:3 frame=T 31=T |=T Written=T by=T MDAnalysis=T XYZWriter=T (release=T 2.4.3)=T pbc="F F F"
H       11.10545000       0.14966000      12.83552000
O       11.27505000       0.18419000      11.87825000
H       12.17086000       0.48514000      11.82751000
H       10.39102000      -0.65653000      15.13069000
O       10.57518000      -0.60532000      14.20282000
H        9.71141000      -0.71415000      13.81387000
