6
Properties=species:S:1:pos:R:3 frame=T 39=T |=T Written=T by=T MDAnalysis=T XYZWriter=T (release=T 2.4.3)=T pbc="F F F"
H      -13.06579000     -11.09307000     -12.86763000
O      -12.98048000     -11.10766000     -13.84868000
H      -13.81110000     -10.71070000     -14.13181000
H      -13.09175000     -11.90578000     -10.25375000
O      -13.15144000     -11.65209000     -11.17276000
H      -12.25758000     -11.86917000     -11.46869000
