6
Properties=species:S:1:pos:R:3 frame=T 2=T |=T Written=T by=T MDAnalysis=T XYZWriter=T (release=T 2.4.3)=T pbc="F F F"
H       -4.66401000       6.46275000      -0.63327000
O       -4.61017000       5.61222000      -1.06142000
H       -4.08114000       5.10676000      -0.47092000
H       -2.75636000       3.16600000       1.25993000
O       -2.89869000       3.99361000       0.80412000
H       -3.74149000       4.26363000       1.16234000
