6
Properties=species:S:1:pos:R:3 frame=T 40=T |=T Written=T by=T MDAnalysis=T XYZWriter=T (release=T 2.4.3)=T pbc="F F F"
H        6.12037000      19.20415000       7.77531000
O        6.05567000      18.26458000       7.41189000
H        5.27630000      17.90163000       7.82875000
H        9.07423000      18.06851000      10.08948000
O        8.11903000      18.11034000       9.87640000
H        8.07994000      18.96804000       9.41376000
