6
Properties=species:S:1:pos:R:3 frame=T 47=T |=T Written=T by=T MDAnalysis=T XYZWriter=T (release=T 2.4.3)=T pbc="F F F"
H      -17.78612000       9.28149000      -7.76853000
O      -18.03049000       8.77296000      -8.56385000
H      -17.21289000       8.49927000      -8.98966000
H      -16.84528000       6.35446000      -7.33939000
O      -17.66615000       6.77891000      -7.00904000
H      -17.74047000       7.58719000      -7.54579000
