6
Properties=species:S:1:pos:R:3 frame=T 4=T |=T Written=T by=T MDAnalysis=T XYZWriter=T (release=T 2.4.3)=T pbc="F F F"
H        9.55227000       0.75898000     -17.02977000
O        9.94945000       0.10002000     -17.62499000
H       10.39959000      -0.46844000     -16.96907000
H       13.33070000       1.20930000     -19.46803000
O       12.99865000       0.93101000     -18.61033000
H       12.07023000       0.74938000     -18.72357000
