6
Properties=species:S:1:pos:R:3 frame=T 6=T |=T Written=T by=T MDAnalysis=T XYZWriter=T (release=T 2.4.3)=T pbc="F F F"
H       10.97557000      10.36647000     -11.56873000
O       11.07094000      11.30124000     -11.78240000
H       11.39600000      11.67681000     -10.96931000
H        9.39996000      10.71494000      -8.38151000
O        9.75633000       9.83899000      -8.44390000
H       10.53178000       9.90063000      -9.01916000
