6
Properties=species:S:1:pos:R:3 frame=T 15=T |=T Written=T by=T MDAnalysis=T XYZWriter=T (release=T 2.4.3)=T pbc="F F F"
H      -15.20139000      15.56854000     -19.04808000
O      -16.08520000      15.70684000     -18.65478000
H      -16.62061000      14.90823000     -18.91506000
H      -18.89932000      17.12217000     -17.43848000
O      -18.72841000      16.54690000     -18.20924000
H      -17.80508000      16.26213000     -18.05492000
