6
Properties=species:S:1:pos:R:3 frame=T 15=T |=T Written=T by=T MDAnalysis=T XYZWriter=T (release=T 2.4.3)=T pbc="F F F"
H      -11.69645000      -8.20510000       4.25511000
O      -11.43258000      -7.43549000       4.80769000
H      -11.19443000      -6.73334000       4.18768000
H      -10.66111000      -5.67994000       7.53360000
O      -11.19596000      -5.53041000       6.74753000
H      -11.00676000      -6.31357000       6.20914000
