6
Properties=species:S:1:pos:R:3 frame=T 16=T |=T Written=T by=T MDAnalysis=T XYZWriter=T (release=T 2.4.3)=T pbc="F F F"
H       -7.46260000       8.71735000     -16.47281000
O       -7.40137000       7.78375000     -16.75195000
H       -8.30967000       7.54143000     -16.88795000
H       -8.21166000       6.55240000     -15.57745000
O       -8.38874000       5.65531000     -15.20587000
H       -8.75515000       5.82678000     -14.32936000
