6
Properties=species:S:1:pos:R:3 frame=T 37=T |=T Written=T by=T MDAnalysis=T XYZWriter=T (release=T 2.4.3)=T pbc="F F F"
H      -12.11996000      -5.91276000      12.40561000
O      -12.19141000      -6.15223000      11.47676000
H      -11.32706000      -5.89150000      11.09919000
H      -10.20907000      -3.31592000      13.31254000
O      -10.63152000      -4.18646000      13.44740000
H      -10.57427000      -4.63576000      12.59360000
