6
Properties=species:S:1:pos:R:3 frame=T 5=T |=T Written=T by=T MDAnalysis=T XYZWriter=T (release=T 2.4.3)=T pbc="F F F"
H       -8.63694000      18.47054000      14.14726000
O       -8.22251000      18.01388000      13.42748000
H       -7.87841000      18.73524000      12.84754000
H       -7.98885000      16.73466000      14.40672000
O       -7.69937000      16.27098000      15.21182000
H       -7.80671000      15.34523000      15.00023000
