6
Properties=species:S:1:pos:R:3 frame=T 8=T |=T Written=T by=T MDAnalysis=T XYZWriter=T (release=T 2.4.3)=T pbc="F F F"
H       16.00079000     -11.43462000     -12.99142000
O       15.14040000     -11.88114000     -12.86787000
H       14.51084000     -11.14520000     -12.87972000
H       15.96213000     -12.53712000     -14.88033000
O       15.91607000     -12.14104000     -15.75845000
H       16.61558000     -12.60310000     -16.24918000
