6
Properties=species:S:1:pos:R:3 frame=T 10=T |=T Written=T by=T MDAnalysis=T XYZWriter=T (release=T 2.4.3)=T pbc="F F F"
H        3.38508000      -3.34611000       6.57452000
O        3.51160000      -2.70432000       5.86212000
H        2.70551000      -2.18116000       5.94534000
H        0.15171000      -2.62090000       4.75744000
O        0.78597000      -3.32896000       4.57108000
H        1.19945000      -3.46051000       5.44836000
