6
Properties=species:S:1:pos:R:3 frame=T 4=T |=T Written=T by=T MDAnalysis=T XYZWriter=T (release=T 2.4.3)=T pbc="F F F"
H        7.73382000      -2.16861000     -16.12377000
O        8.28926000      -2.98709000     -16.12162000
H        8.09284000      -3.46866000     -15.29156000
H        8.72611000      -3.94504000     -13.80735000
O        7.77869000      -4.11504000     -13.68567000
H        7.78985000      -5.04899000     -13.36987000
