6
Properties=species:S:1:pos:R:3 frame=T 18=T |=T Written=T by=T MDAnalysis=T XYZWriter=T (release=T 2.4.3)=T pbc="F F F"
H       13.06111000      14.05830000       3.34397000
O       13.38280000      14.54175000       4.09187000
H       14.27456000      14.16470000       4.17061000
H       11.69610000      14.86374000       4.25724000
O       10.80470000      14.74137000       4.60309000
H       10.29420000      15.16142000       3.90152000
