6
Properties=species:S:1:pos:R:3 frame=T 29=T |=T Written=T by=T MDAnalysis=T XYZWriter=T (release=T 2.4.3)=T pbc="F F F"
H        3.81771000      -4.65125000      -1.28728000
O        3.83154000      -5.52352000      -1.69707000
H        4.72687000      -5.77012000      -1.47524000
H        6.72181000      -5.80213000      -3.12901000
O        6.67109000      -6.25899000      -2.26129000
H        7.13571000      -5.67752000      -1.62331000
