6
Properties=species:S:1:pos:R:3 frame=T 2=T |=T Written=T by=T MDAnalysis=T XYZWriter=T (release=T 2.4.3)=T pbc="F F F"
H        8.78353000       3.62713000       0.04441000
O        8.44973000       2.77025000       0.33901000
H        9.26516000       2.29377000       0.54315000
H        8.58380000       6.14343000      -0.96805000
O        9.20635000       5.40498000      -0.83638000
H        9.73816000       5.67103000      -0.09500000
