6
Properties=species:S:1:pos:R:3 frame=T 40=T |=T Written=T by=T MDAnalysis=T XYZWriter=T (release=T 2.4.3)=T pbc="F F F"
H      -10.46469000     -17.97462000     -12.51485000
O       -9.60784000     -17.56858000     -12.66032000
H       -9.09470000     -18.18802000     -13.19250000
H       -8.06353000     -15.99563000     -10.24823000
O       -8.04607000     -15.77886000     -11.17414000
H       -8.43206000     -16.53854000     -11.59221000
