6
Properties=species:S:1:pos:R:3 frame=T 23=T |=T Written=T by=T MDAnalysis=T XYZWriter=T (release=T 2.4.3)=T pbc="F F F"
H       -5.27734000     -12.81585000      13.46472000
O       -4.75501000     -12.63180000      14.26805000
H       -5.43168000     -12.36038000      14.87053000
H       -6.09235000     -14.33019000      12.93361000
O       -5.77193000     -13.96874000      12.09285000
H       -6.22937000     -14.55527000      11.47017000
