6
Properties=species:S:1:pos:R:3 frame=T 45=T |=T Written=T by=T MDAnalysis=T XYZWriter=T (release=T 2.4.3)=T pbc="F F F"
H       -0.68829000      17.56263000     -16.39298000
O       -0.04972000      16.92794000     -16.04986000
H       -0.46049000      16.09509000     -16.23078000
H       -0.14776000      13.90449000     -16.43940000
O       -0.24046000      14.43407000     -17.25928000
H        0.60590000      14.88736000     -17.38567000
