6
Properties=species:S:1:pos:R:3 frame=T 10=T |=T Written=T by=T MDAnalysis=T XYZWriter=T (release=T 2.4.3)=T pbc="F F F"
H       16.85526000      -8.68818000      12.08966000
O       16.63428000      -9.55946000      11.78503000
H       17.40373000     -10.06103000      12.10862000
H       15.74938000      -7.97302000      13.22706000
O       15.49287000      -7.28313000      12.58809000
H       14.53980000      -7.39866000      12.47799000
