6
Properties=species:S:1:pos:R:3 frame=T 52=T |=T Written=T by=T MDAnalysis=T XYZWriter=T (release=T 2.4.3)=T pbc="F F F"
H       -1.95635000      12.54298000      -0.49995000
O       -2.29155000      11.64371000      -0.30112000
H       -1.68249000      11.04446000      -0.77261000
H       -0.14746000       9.59787000      -1.24461000
O       -0.64032000       9.20176000      -0.49531000
H       -1.00994000       8.46391000      -0.97443000
