6
Properties=species:S:1:pos:R:3 frame=T 39=T |=T Written=T by=T MDAnalysis=T XYZWriter=T (release=T 2.4.3)=T pbc="F F F"
H       -7.49555000      -3.77780000      16.21693000
O       -6.69318000      -4.20664000      16.50097000
H       -7.06829000      -4.82867000      17.16943000
H       -5.26756000      -2.43056000      18.58775000
O       -6.23951000      -2.43819000      18.58802000
H       -6.47877000      -3.26374000      18.11796000
