6
Properties=species:S:1:pos:R:3 frame=T 35=T |=T Written=T by=T MDAnalysis=T XYZWriter=T (release=T 2.4.3)=T pbc="F F F"
H       -7.50983000       5.90728000       2.17556000
O       -7.72022000       6.59008000       1.52262000
H       -6.92584000       6.57908000       0.94886000
H       -5.53197000       5.16591000       0.46719000
O       -5.93303000       4.48130000      -0.06737000
H       -5.70703000       4.76731000      -0.95344000
