6
Properties=species:S:1:pos:R:3 frame=T 17=T |=T Written=T by=T MDAnalysis=T XYZWriter=T (release=T 2.4.3)=T pbc="F F F"
H       18.71830000       3.69433000     -16.07644000
O       18.64015000       4.58861000     -15.68085000
H       18.34068000       4.40590000     -14.78570000
H       17.31754000       6.02780000     -16.31227000
O       16.42985000       6.32997000     -16.56288000
H       15.90416000       6.02731000     -15.80183000
