6
Properties=species:S:1:pos:R:3 frame=T 18=T |=T Written=T by=T MDAnalysis=T XYZWriter=T (release=T 2.4.3)=T pbc="F F F"
H        9.01211000     -10.63027000     -14.68072000
O        8.99944000     -11.59621000     -14.70627000
H        9.58634000     -11.90868000     -13.99901000
H        6.51021000     -12.72229000     -13.22273000
O        7.18217000     -12.16637000     -12.78173000
H        7.59681000     -11.75527000     -13.51859000
