6
Properties=species:S:1:pos:R:3 frame=T 48=T |=T Written=T by=T MDAnalysis=T XYZWriter=T (release=T 2.4.3)=T pbc="F F F"
H      -18.38980000      -9.07311000      18.07195000
O      -18.10920000      -9.97799000      18.29456000
H      -17.82912000      -9.94216000      19.24963000
H      -16.22454000      -8.50789000      18.60492000
O      -15.66275000      -7.98382000      19.18400000
H      -14.84813000      -8.46529000      19.07146000
