6
Properties=species:S:1:pos:R:3 frame=T 1=T |=T Written=T by=T MDAnalysis=T XYZWriter=T (release=T 2.4.3)=T pbc="F F F"
H        3.32986000      15.82082000       6.53496000
O        3.26306000      16.14897000       5.64134000
H        2.32541000      15.98966000       5.38249000
H        3.44167000      17.23287000       4.31611000
O        3.21980000      18.06969000       3.88076000
H        3.04381000      18.73064000       4.54841000
