6
Properties=species:S:1:pos:R:3 frame=T 5=T |=T Written=T by=T MDAnalysis=T XYZWriter=T (release=T 2.4.3)=T pbc="F F F"
H        3.34092000     -14.11202000     -10.36139000
O        2.86188000     -13.88875000     -11.15529000
H        2.01359000     -14.32354000     -10.98398000
H        0.33075000     -13.27425000     -11.81084000
O        0.19508000     -14.14185000     -11.38837000
H       -0.68582000     -14.36310000     -11.80495000
