6
Properties=species:S:1:pos:R:3 frame=T 35=T |=T Written=T by=T MDAnalysis=T XYZWriter=T (release=T 2.4.3)=T pbc="F F F"
H       -3.58437000      16.59676000     -10.90168000
O       -2.69847000      16.60808000     -10.54212000
H       -2.28226000      17.37063000     -10.99497000
H       -1.68780000      14.23057000      -8.74924000
O       -1.13265000      14.51599000      -9.49475000
H       -1.67648000      15.16264000      -9.95602000
