6
Properties=species:S:1:pos:R:3 frame=T 20=T |=T Written=T by=T MDAnalysis=T XYZWriter=T (release=T 2.4.3)=T pbc="F F F"
H       -6.89687000      -3.14276000       0.90297000
O       -7.30782000      -2.35049000       0.52813000
H       -6.86795000      -2.33619000      -0.31780000
H       -9.86146000      -1.06915000       1.74906000
O       -9.98471000      -1.51503000       0.87792000
H       -9.16420000      -1.94424000       0.69785000
