6
Properties=species:S:1:pos:R:3 frame=T 28=T |=T Written=T by=T MDAnalysis=T XYZWriter=T (release=T 2.4.3)=T pbc="F F F"
H       10.97677000      -2.59068000     -14.87805000
O       11.59690000      -1.84959000     -14.85104000
H       11.66372000      -1.52573000     -15.75955000
H       12.74216000      -3.43505000     -15.08215000
O       13.24161000      -4.03330000     -15.64518000
H       14.11755000      -3.66671000     -15.70235000
