6
Properties=species:S:1:pos:R:3 frame=T 42=T |=T Written=T by=T MDAnalysis=T XYZWriter=T (release=T 2.4.3)=T pbc="F F F"
H       13.20094000      16.06417000     -17.59331000
O       13.66512000      15.83688000     -16.78364000
H       14.50029000      15.46303000     -17.13976000
H       10.92977000      15.66483000     -18.40518000
O       11.30062000      16.42183000     -17.94163000
H       11.12619000      17.15549000     -18.52534000
