6
Properties=species:S:1:pos:R:3 frame=T 48=T |=T Written=T by=T MDAnalysis=T XYZWriter=T (release=T 2.4.3)=T pbc="F F F"
H        8.23742000      14.03975000       6.68429000
O        8.17570000      13.21729000       6.18442000
H        8.27625000      13.55387000       5.27381000
H        8.32047000      10.00790000       6.39685000
O        8.31585000      10.67017000       5.71260000
H        8.20027000      11.51897000       6.16861000
