6
Properties=species:S:1:pos:R:3 frame=T 54=T |=T Written=T by=T MDAnalysis=T XYZWriter=T (release=T 2.4.3)=T pbc="F F F"
H       -1.27607000      -4.24568000     -14.74445000
O       -1.28110000      -3.96317000     -15.65622000
H       -0.69426000      -4.58617000     -16.12054000
H       -3.55654000      -4.78661000     -17.18839000
O       -3.78212000      -3.91918000     -16.86735000
H       -3.09413000      -3.72148000     -16.22304000
