6
Properties=species:S:1:pos:R:3 frame=T 11=T |=T Written=T by=T MDAnalysis=T XYZWriter=T (release=T 2.4.3)=T pbc="F F F"
H        2.73276000      19.33328000      -5.23972000
O        3.69736000      19.27623000      -5.10352000
H        3.79997000      18.41591000      -5.53421000
H        1.24937000      16.71202000      -3.52918000
O        1.30894000      17.65991000      -3.63768000
H        2.27063000      17.82722000      -3.58222000
