6
Properties=species:S:1:pos:R:3 frame=T 8=T |=T Written=T by=T MDAnalysis=T XYZWriter=T (release=T 2.4.3)=T pbc="F F F"
H      -14.36286000     -11.91034000       5.23306000
O      -14.73653000     -12.76849000       5.08047000
H      -14.05387000     -13.28027000       4.65210000
H      -14.84774000     -12.94313000       6.75609000
O      -15.19176000     -13.23831000       7.61468000
H      -14.42607000     -13.79390000       7.98636000
