6
Properties=species:S:1:pos:R:3 frame=T 47=T |=T Written=T by=T MDAnalysis=T XYZWriter=T (release=T 2.4.3)=T pbc="F F F"
H      -10.62015000      -6.43944000     -17.80754000
O      -10.83668000      -5.62399000     -17.35566000
H      -11.16503000      -5.89421000     -16.46645000
H      -10.62872000      -8.57073000     -18.19040000
O      -10.19507000      -8.48573000     -17.30461000
H      -10.60536000      -9.19276000     -16.76709000
