6
Properties=species:S:1:pos:R:3 frame=T 19=T |=T Written=T by=T MDAnalysis=T XYZWriter=T (release=T 2.4.3)=T pbc="F F F"
H        3.73986000     -19.08588000     -12.45362000
O        3.32658000     -18.37963000     -11.95488000
H        2.37905000     -18.56737000     -12.02034000
H        4.62487000     -18.14967000     -10.46089000
O        4.75941000     -18.22710000      -9.51572000
H        5.55471000     -18.82489000      -9.48375000
