6
Properties=species:S:1:pos:R:3 frame=T 8=T |=T Written=T by=T MDAnalysis=T XYZWriter=T (release=T 2.4.3)=T pbc="F F F"
H       16.22318000      -2.97962000      18.12969000
O       16.78634000      -3.18017000      17.39343000
H       17.02869000      -4.09231000      17.58811000
H       14.30528000      -2.79338000      18.80721000
O       13.82801000      -3.13978000      18.00834000
H       13.63513000      -4.06260000      18.24902000
