6
Properties=species:S:1:pos:R:3 frame=T 15=T |=T Written=T by=T MDAnalysis=T XYZWriter=T (release=T 2.4.3)=T pbc="F F F"
H       -3.63834000     -12.69672000       2.81285000
O       -3.90612000     -12.22713000       2.00258000
H       -4.48183000     -12.88977000       1.55625000
H       -5.37965000     -11.00447000       2.69932000
O       -6.14271000     -10.60035000       3.07970000
H       -6.57990000     -11.36002000       3.46154000
