6
Properties=species:S:1:pos:R:3 frame=T 13=T |=T Written=T by=T MDAnalysis=T XYZWriter=T (release=T 2.4.3)=T pbc="F F F"
H       -2.26415000       4.44312000      -1.92182000
O       -2.25349000       3.46839000      -1.97537000
H       -3.14225000       3.20460000      -1.71478000
H       -3.12768000       5.04877000       0.01482000
O       -4.01897000       4.69006000       0.01113000
H       -3.93872000       3.74030000       0.04730000
