6
Properties=species:S:1:pos:R:3 frame=T 3=T |=T Written=T by=T MDAnalysis=T XYZWriter=T (release=T 2.4.3)=T pbc="F F F"
H       -2.78014000      -6.15188000       1.88031000
O       -2.56611000      -5.56557000       1.14543000
H       -2.60328000      -4.68842000       1.53220000
H       -2.31031000      -5.79924000       4.21085000
O       -2.78381000      -6.43682000       3.66695000
H       -3.54168000      -5.91886000       3.37186000
