6
Properties=species:S:1:pos:R:3 frame=T 10=T |=T Written=T by=T MDAnalysis=T XYZWriter=T (release=T 2.4.3)=T pbc="F F F"
H       15.08701000     -18.46215000       9.53393000
O       15.71712000     -18.49363000       8.79827000
H       15.98854000     -17.60755000       8.59702000
H       15.79964000     -17.86308000      11.42708000
O       14.83519000     -17.99212000      11.39558000
H       14.37759000     -17.21346000      11.76706000
