6
Properties=species:S:1:pos:R:3 frame=T 7=T |=T Written=T by=T MDAnalysis=T XYZWriter=T (release=T 2.4.3)=T pbc="F F F"
H       12.10739000     -17.45481000      11.78368000
O       11.77804000     -16.90501000      12.51535000
H       11.62946000     -16.06984000      12.01523000
H        9.26458000     -18.37046000      11.12473000
O        9.45911000     -18.52526000      12.04997000
H       10.16407000     -17.90116000      12.25810000
