6
Properties=species:S:1:pos:R:3 frame=T 35=T |=T Written=T by=T MDAnalysis=T XYZWriter=T (release=T 2.4.3)=T pbc="F F F"
H        6.62466000     -11.52364000      -3.39590000
O        6.93334000     -12.22909000      -2.81652000
H        7.20910000     -11.73542000      -2.01288000
H        8.70646000     -12.89029000      -2.93030000
O        9.34683000     -13.52814000      -2.56163000
H        8.88532000     -13.97363000      -1.84997000
