6
Properties=species:S:1:pos:R:3 frame=T 22=T |=T Written=T by=T MDAnalysis=T XYZWriter=T (release=T 2.4.3)=T pbc="F F F"
H        4.66960000      -7.97812000     -12.71154000
O        5.55689000      -7.59767000     -12.57773000
H        6.10257000      -8.40987000     -12.53418000
H        2.89554000      -8.53376000     -13.27162000
O        2.98271000      -7.56473000     -13.10172000
H        2.62154000      -7.53003000     -12.22865000
