6
Properties=species:S:1:pos:R:3 frame=T 49=T |=T Written=T by=T MDAnalysis=T XYZWriter=T (release=T 2.4.3)=T pbc="F F F"
H        3.64248000      12.24195000       7.27295000
O        4.44281000      11.74798000       7.03207000
H        4.33012000      10.90575000       7.44647000
H        1.70106000      11.93961000       6.44452000
O        1.87397000      12.51136000       7.23227000
H        1.70729000      13.39849000       6.88987000
