6
Properties=species:S:1:pos:R:3 frame=T 54=T |=T Written=T by=T MDAnalysis=T XYZWriter=T (release=T 2.4.3)=T pbc="F F F"
H       10.24882000     -13.97682000       3.29050000
O        9.34089000     -13.62982000       3.18702000
H        9.00541000     -13.79018000       4.07192000
H       10.66724000     -13.40596000       0.14307000
O       10.97670000     -12.81881000       0.86567000
H       10.55229000     -13.14611000       1.65322000
