6
Properties=species:S:1:pos:R:3 frame=T 29=T |=T Written=T by=T MDAnalysis=T XYZWriter=T (release=T 2.4.3)=T pbc="F F F"
H        5.19721000      17.76325000       2.18367000
O        4.71089000      18.13032000       1.43809000
H        5.11341000      19.00903000       1.39178000
H        6.90145000      18.59315000       3.89478000
O        6.66601000      17.69487000       3.61186000
H        6.78607000      17.16006000       4.42497000
