6
Properties=species:S:1:pos:R:3 frame=T 35=T |=T Written=T by=T MDAnalysis=T XYZWriter=T (release=T 2.4.3)=T pbc="F F F"
H      -17.61783000      -2.01492000      11.07464000
O      -18.27113000      -1.47371000      11.51597000
H      -18.41753000      -1.85216000      12.38877000
H      -16.45773000      -2.55121000       9.31075000
O      -16.62619000      -3.03804000      10.13996000
H      -17.38099000      -3.59076000       9.90399000
