6
Properties=species:S:1:pos:R:3 frame=T 23=T |=T Written=T by=T MDAnalysis=T XYZWriter=T (release=T 2.4.3)=T pbc="F F F"
H      -13.31557000      15.70658000      11.43486000
O      -13.69311000      16.59418000      11.52676000
H      -12.94045000      17.17433000      11.36587000
H      -15.75592000      18.29589000      12.80923000
O      -15.95236000      17.39437000      13.03251000
H      -15.38520000      16.89253000      12.46124000
