6
Properties=species:S:1:pos:R:3 frame=T 15=T |=T Written=T by=T MDAnalysis=T XYZWriter=T (release=T 2.4.3)=T pbc="F F F"
H        5.18495000     -15.58810000      -5.94397000
O        5.88389000     -15.89449000      -5.34917000
H        6.29874000     -16.63211000      -5.83403000
H        5.89248000     -17.66219000      -8.22822000
O        6.56426000     -17.47330000      -7.56288000
H        7.37235000     -17.45027000      -8.13535000
