6
Properties=species:S:1:pos:R:3 frame=T 25=T |=T Written=T by=T MDAnalysis=T XYZWriter=T (release=T 2.4.3)=T pbc="F F F"
H       10.24111000     -10.66606000     -13.89056000
O        9.99315000     -10.68679000     -12.94157000
H        9.02621000     -10.73681000     -12.96979000
H       12.14496000     -12.11924000     -11.58431000
O       11.55836000     -12.86591000     -11.70222000
H       10.78824000     -12.44682000     -12.14566000
