6
Properties=species:S:1:pos:R:3 frame=T 52=T |=T Written=T by=T MDAnalysis=T XYZWriter=T (release=T 2.4.3)=T pbc="F F F"
H       -4.16158000       0.32388000       5.05568000
O       -3.26162000       0.64585000       5.15057000
H       -2.96181000       0.97891000       4.29205000
H       -5.78932000      -1.52511000       4.28000000
O       -5.75405000      -0.55766000       4.21606000
H       -5.79136000      -0.37299000       3.27200000
