6
Properties=species:S:1:pos:R:3 frame=T 9=T |=T Written=T by=T MDAnalysis=T XYZWriter=T (release=T 2.4.3)=T pbc="F F F"
H       -7.74537000      16.86610000     -11.36618000
O       -7.01123000      16.97253000     -10.73412000
H       -7.23175000      16.27801000     -10.06497000
H       -5.18098000      16.31875000     -11.17731000
O       -4.37523000      15.96574000     -11.58197000
H       -3.79319000      16.71547000     -11.65341000
