6
Properties=species:S:1:pos:R:3 frame=T 28=T |=T Written=T by=T MDAnalysis=T XYZWriter=T (release=T 2.4.3)=T pbc="F F F"
H       11.37699000       2.08003000       4.76768000
O       11.72937000       1.18277000       4.78400000
H       12.38564000       1.19893000       4.08621000
H       11.68773000       1.57625000       7.90144000
O       12.64021000       1.58574000       7.70611000
H       12.59810000       1.50768000       6.76206000
