6
Properties=species:S:1:pos:R:3 frame=T 10=T |=T Written=T by=T MDAnalysis=T XYZWriter=T (release=T 2.4.3)=T pbc="F F F"
H       -8.23609000     -18.07302000       9.44976000
O       -8.25710000     -17.45757000      10.19757000
H       -7.78654000     -17.97398000      10.87596000
H       -7.49891000     -18.67146000       7.89783000
O       -6.99041000     -18.09192000       7.32123000
H       -6.11147000     -18.07755000       7.71786000
