6
Properties=species:S:1:pos:R:3 frame=T 5=T |=T Written=T by=T MDAnalysis=T XYZWriter=T (release=T 2.4.3)=T pbc="F F F"
H       -1.95577000     -17.41638000       4.38462000
O       -1.14320000     -17.68098000       3.91235000
H       -0.94755000     -16.83304000       3.48052000
H        1.09575000     -15.58486000       6.06350000
O        0.40393000     -15.28946000       5.45043000
H        0.07829000     -16.07838000       5.02162000
