6
Properties=species:S:1:pos:R:3 frame=T 45=T |=T Written=T by=T MDAnalysis=T XYZWriter=T (release=T 2.4.3)=T pbc="F F F"
H       12.14874000     -14.89239000      -0.09324000
O       11.76036000     -14.01223000      -0.09898000
H       11.79552000     -13.71860000       0.83499000
H       13.67631000     -12.62258000       2.20266000
O       13.19975000     -13.38909000       2.44307000
H       12.57113000     -13.04134000       3.08966000
