6
Properties=species:S:1:pos:R:3 frame=T 22=T |=T Written=T by=T MDAnalysis=T XYZWriter=T (release=T 2.4.3)=T pbc="F F F"
H      -18.32654000     -12.26727000       1.87721000
O      -17.58861000     -12.07238000       1.30083000
H      -17.54004000     -11.10120000       1.32785000
H      -17.39809000     -12.54506000      -0.68383000
O      -17.72606000     -12.84999000      -1.50653000
H      -18.61933000     -12.49518000      -1.48389000
