6
Properties=species:S:1:pos:R:3 frame=T 6=T |=T Written=T by=T MDAnalysis=T XYZWriter=T (release=T 2.4.3)=T pbc="F F F"
H       -8.05559000     -17.09732000      -7.00050000
O       -7.40966000     -17.73971000      -6.63558000
H       -7.68462000     -18.60351000      -6.93543000
H       -4.80943000     -16.76883000      -4.94224000
O       -5.12696000     -16.63329000      -5.80088000
H       -5.91105000     -17.21552000      -5.88567000
