6
Properties=species:S:1:pos:R:3 frame=T 22=T |=T Written=T by=T MDAnalysis=T XYZWriter=T (release=T 2.4.3)=T pbc="F F F"
H       -0.87581000     -11.20327000     -14.74649000
O       -0.24192000     -11.85736000     -14.45972000
H        0.49059000     -11.78101000     -15.06851000
H        2.26380000     -10.82511000     -15.45270000
O        2.30137000     -11.70063000     -15.82186000
H        1.87944000     -11.54569000     -16.68030000
