6
Properties=species:S:1:pos:R:3 frame=T 13=T |=T Written=T by=T MDAnalysis=T XYZWriter=T (release=T 2.4.3)=T pbc="F F F"
H       18.78619000      11.93954000       9.48203000
O       18.94309000      12.80532000       9.85071000
H       18.09216000      13.12379000      10.12673000
H       16.35203000      13.80332000       7.73560000
O       16.99118000      14.38014000       8.09619000
H       17.61825000      13.74582000       8.43450000
