6
Properties=species:S:1:pos:R:3 frame=T 31=T |=T Written=T by=T MDAnalysis=T XYZWriter=T (release=T 2.4.3)=T pbc="F F F"
H       -7.19526000      -4.79013000     -11.99632000
O       -7.59186000      -4.99653000     -11.18278000
H       -8.48944000      -5.11660000     -11.52292000
H       -5.58135000      -6.81750000      -9.33734000
O       -5.64837000      -5.88877000      -9.54348000
H       -6.29435000      -5.81064000     -10.24385000
