6
Properties=species:S:1:pos:R:3 frame=T 18=T |=T Written=T by=T MDAnalysis=T XYZWriter=T (release=T 2.4.3)=T pbc="F F F"
H      -10.26977000       0.36864000      11.71183000
O      -11.16063000       0.32518000      11.39334000
H      -11.62676000      -0.25540000      12.01806000
H      -12.18540000      -2.36197000      12.90312000
O      -12.51195000      -1.46350000      13.05787000
H      -11.85901000      -1.13827000      13.69734000
