6
Properties=species:S:1:pos:R:3 frame=T 21=T |=T Written=T by=T MDAnalysis=T XYZWriter=T (release=T 2.4.3)=T pbc="F F F"
H      -17.52465000     -13.77251000      -2.58049000
O      -17.75838000     -14.58322000      -3.00945000
H      -18.30230000     -15.04000000      -2.35603000
H      -18.67574000     -13.92914000      -4.72993000
O      -19.15035000     -14.00794000      -5.55049000
H      -18.77794000     -14.78510000      -5.97016000
