6
Properties=species:S:1:pos:R:3 frame=T 44=T |=T Written=T by=T MDAnalysis=T XYZWriter=T (release=T 2.4.3)=T pbc="F F F"
H        1.02223000      -8.74164000      -5.71480000
O        1.96905000      -8.72386000      -5.70232000
H        2.09181000      -7.91270000      -5.19961000
H        2.44651000      -7.26826000      -2.68555000
O        1.77361000      -7.92889000      -2.96535000
H        1.01890000      -7.39639000      -3.26123000
