6
Properties=species:S:1:pos:R:3 frame=T 18=T |=T Written=T by=T MDAnalysis=T XYZWriter=T (release=T 2.4.3)=T pbc="F F F"
H       -6.44025000     -15.87221000     -10.21109000
O       -7.11482000     -15.53234000      -9.60841000
H       -7.57781000     -16.32638000      -9.26874000
H       -9.92391000     -16.12132000      -8.84177000
O       -9.36104000     -16.92298000      -8.76268000
H       -9.53101000     -17.19260000      -7.83674000
