6
Properties=species:S:1:pos:R:3 frame=T 54=T |=T Written=T by=T MDAnalysis=T XYZWriter=T (release=T 2.4.3)=T pbc="F F F"
H       12.15920000       7.84400000      15.52923000
O       11.80109000       7.64010000      14.64189000
H       11.55018000       8.51000000      14.35249000
H       14.88029000       7.77497000      14.11829000
O       14.44484000       6.90122000      14.12939000
H       13.54004000       7.11010000      13.86151000
