6
Properties=species:S:1:pos:R:3 frame=T 43=T |=T Written=T by=T MDAnalysis=T XYZWriter=T (release=T 2.4.3)=T pbc="F F F"
H       11.46569000       9.32633000      -7.97677000
O       10.54668000       9.21574000      -8.19888000
H       10.46673000       8.29912000      -8.40470000
H       10.93543000       6.43221000      -7.53215000
O       10.43252000       6.67246000      -8.33459000
H        9.67245000       6.06452000      -8.25809000
