6
Properties=species:S:1:pos:R:3 frame=T 23=T |=T Written=T by=T MDAnalysis=T XYZWriter=T (release=T 2.4.3)=T pbc="F F F"
H       -1.10634000       3.32131000      -2.95414000
O       -1.14075000       2.81348000      -3.77821000
H       -0.29716000       3.00997000      -4.20339000
H        1.97572000       2.51065000      -3.09954000
O        1.54158000       3.24779000      -3.58428000
H        2.03743000       3.33222000      -4.39545000
