6
Properties=species:S:1:pos:R:3 frame=T 28=T |=T Written=T by=T MDAnalysis=T XYZWriter=T (release=T 2.4.3)=T pbc="F F F"
H       17.15877000      14.19469000     -14.90376000
O       17.39112000      15.05522000     -15.24176000
H       17.31272000      15.55664000     -14.41269000
H       17.32990000      16.38059000     -11.87938000
O       17.65975000      16.45320000     -12.78761000
H       18.48498000      16.89349000     -12.68654000
