6
Properties=species:S:1:pos:R:3 frame=T 53=T |=T Written=T by=T MDAnalysis=T XYZWriter=T (release=T 2.4.3)=T pbc="F F F"
H       -7.91267000       7.60707000      10.34265000
O       -7.08324000       7.74523000       9.91950000
H       -6.84527000       6.98369000       9.37377000
H       -9.02049000       8.62841000      12.20726000
O       -9.06910000       7.93618000      11.52474000
H       -9.76812000       7.36791000      11.84500000
