6
Properties=species:S:1:pos:R:3 frame=T 20=T |=T Written=T by=T MDAnalysis=T XYZWriter=T (release=T 2.4.3)=T pbc="F F F"
H       13.50472000     -10.22130000      -4.19944000
O       14.22546000     -10.82555000      -4.09140000
H       14.67166000     -10.72685000      -4.92034000
H       11.92597000     -11.31425000      -3.74853000
O       11.35353000     -10.53607000      -3.73254000
H       10.45366000     -10.87749000      -3.91700000
