6
Properties=species:S:1:pos:R:3 frame=T 18=T |=T Written=T by=T MDAnalysis=T XYZWriter=T (release=T 2.4.3)=T pbc="F F F"
H      -19.05583000      -9.85011000     -17.48777000
O      -18.48837000      -9.13430000     -17.75426000
H      -18.12689000      -8.83560000     -16.93102000
H      -18.28087000      -9.37533000     -15.00440000
O      -17.40498000      -9.36595000     -15.37164000
H      -17.28357000      -8.44874000     -15.60294000
