6
Properties=species:S:1:pos:R:3 frame=T 1=T |=T Written=T by=T MDAnalysis=T XYZWriter=T (release=T 2.4.3)=T pbc="F F F"
H      -18.23325000       0.88247000      -7.66253000
O      -18.51882000       0.25395000      -6.98764000
H      -17.96681000      -0.51086000      -7.12291000
H      -18.03520000      -2.68595000      -4.56729000
O      -18.11103000      -1.83520000      -4.11266000
H      -18.35857000      -1.26586000      -4.87900000
