6
Properties=species:S:1:pos:R:3 frame=T 36=T |=T Written=T by=T MDAnalysis=T XYZWriter=T (release=T 2.4.3)=T pbc="F F F"
H       15.84064000     -13.53180000      -2.11185000
O       15.37464000     -13.58963000      -1.26908000
H       15.94874000     -13.09861000      -0.68172000
H       18.53437000     -13.53009000      -3.48689000
O       17.76760000     -13.23769000      -2.94265000
H       18.19233000     -12.54023000      -2.44890000
