6
Properties=species:S:1:pos:R:3 frame=T 16=T |=T Written=T by=T MDAnalysis=T XYZWriter=T (release=T 2.4.3)=T pbc="F F F"
H        1.83313000      12.09712000      13.44428000
O        2.58219000      12.50257000      13.84955000
H        3.29158000      11.86141000      13.81933000
H        2.98410000      14.24531000      14.12452000
O        3.51420000      14.99237000      14.41060000
H        3.29013000      15.68837000      13.76020000
