6
Properties=species:S:1:pos:R:3 frame=T 39=T |=T Written=T by=T MDAnalysis=T XYZWriter=T (release=T 2.4.3)=T pbc="F F F"
H      -16.32821000     -12.50571000     -16.72348000
O      -15.78285000     -11.72721000     -16.50670000
H      -14.88421000     -11.99223000     -16.81446000
H      -15.95617000     -10.72147000     -18.15159000
O      -15.94033000     -10.15326000     -18.91115000
H      -15.25339000     -10.57468000     -19.42288000
