6
Properties=species:S:1:pos:R:3 frame=T 53=T |=T Written=T by=T MDAnalysis=T XYZWriter=T (release=T 2.4.3)=T pbc="F F F"
H      -10.57575000     -17.35157000      -6.97553000
O      -10.43464000     -17.98668000      -6.26178000
H       -9.63434000     -18.51574000      -6.50830000
H      -11.01399000     -15.37953000      -8.07231000
O      -11.52120000     -16.12060000      -8.38657000
H      -11.11835000     -16.32331000      -9.22137000
