6
Properties=species:S:1:pos:R:3 frame=T 43=T |=T Written=T by=T MDAnalysis=T XYZWriter=T (release=T 2.4.3)=T pbc="F F F"
H       10.35119000      17.90298000      -2.32183000
O       10.17201000      17.73859000      -1.37141000
H       11.08509000      17.58705000      -1.02094000
H        8.64606000      16.84602000      -1.17946000
O        7.76635000      16.68579000      -1.55018000
H        7.36249000      16.03638000      -0.97240000
