6
Properties=species:S:1:pos:R:3 frame=T 4=T |=T Written=T by=T MDAnalysis=T XYZWriter=T (release=T 2.4.3)=T pbc="F F F"
H        2.83525000       4.60271000      -8.93828000
O        2.06990000       4.92641000      -9.36650000
H        2.19255000       5.86568000      -9.49935000
H        1.14829000       5.15189000      -7.77260000
O        0.61008000       5.35101000      -7.01465000
H        1.23632000       5.22872000      -6.29790000
