6
Properties=species:S:1:pos:R:3 frame=T 42=T |=T Written=T by=T MDAnalysis=T XYZWriter=T (release=T 2.4.3)=T pbc="F F F"
H      -13.32876000       3.43065000       6.79932000
O      -13.84954000       4.24146000       6.78449000
H      -13.39750000       4.79210000       6.11814000
H      -16.20500000       3.94055000       8.86429000
O      -15.46622000       3.43209000       8.54567000
H      -15.06574000       4.03772000       7.93067000
