6
Properties=species:S:1:pos:R:3 frame=T 47=T |=T Written=T by=T MDAnalysis=T XYZWriter=T (release=T 2.4.3)=T pbc="F F F"
H       16.79735000      12.39070000       2.94098000
O       16.42595000      12.86623000       3.72170000
H       15.49549000      12.98925000       3.48272000
H       15.71098000      10.77165000       5.68611000
O       16.28558000      11.40474000       6.14684000
H       16.45334000      12.04218000       5.45756000
