6
Properties=species:S:1:pos:R:3 frame=T 28=T |=T Written=T by=T MDAnalysis=T XYZWriter=T (release=T 2.4.3)=T pbc="F F F"
H      -15.29671000      -6.99378000      -9.59636000
O      -16.05503000      -6.60876000      -9.09946000
H      -16.67547000      -6.41487000      -9.81193000
H      -16.89607000      -3.72001000      -9.64197000
O      -17.34585000      -4.16793000      -8.86305000
H      -16.87081000      -4.96542000      -8.69455000
