6
Properties=species:S:1:pos:R:3 frame=T 40=T |=T Written=T by=T MDAnalysis=T XYZWriter=T (release=T 2.4.3)=T pbc="F F F"
H       -1.32515000       6.54730000       0.83638000
O       -2.27374000       6.77473000       0.81096000
H       -2.72388000       6.25089000       1.47756000
H       -0.31390000       4.55499000      -0.39425000
O        0.01719000       5.11971000       0.32055000
H        0.86484000       5.44593000       0.05962000
