6
Properties=species:S:1:pos:R:3 frame=T 9=T |=T Written=T by=T MDAnalysis=T XYZWriter=T (release=T 2.4.3)=T pbc="F F F"
H       -9.94230000     -16.01636000      -4.92289000
O      -10.47720000     -16.15980000      -4.11414000
H      -11.17541000     -16.77328000      -4.39201000
H       -7.90793000     -15.89212000      -6.10391000
O       -8.84518000     -16.11645000      -6.19759000
H       -8.86890000     -17.11005000      -6.17987000
