6
Properties=species:S:1:pos:R:3 frame=T 27=T |=T Written=T by=T MDAnalysis=T XYZWriter=T (release=T 2.4.3)=T pbc="F F F"
H        7.95956000      -0.40669000     -11.38142000
O        7.40375000      -1.17914000     -11.56846000
H        7.89959000      -1.67617000     -12.28402000
H        9.47571000       0.24711000     -10.53378000
O        8.67098000       0.83160000     -10.42228000
H        8.87316000       1.65955000     -10.84544000
