6
Properties=species:S:1:pos:R:3 frame=T 31=T |=T Written=T by=T MDAnalysis=T XYZWriter=T (release=T 2.4.3)=T pbc="F F F"
H        9.12071000     -13.96504000      -8.47178000
O        8.89153000     -13.76376000      -9.38790000
H        8.55852000     -14.59944000      -9.64769000
H        7.30419000     -10.82765000      -9.76155000
O        8.07681000     -11.20541000      -9.29331000
H        7.98829000     -12.16600000      -9.37418000
