6
Properties=species:S:1:pos:R:3 frame=T 51=T |=T Written=T by=T MDAnalysis=T XYZWriter=T (release=T 2.4.3)=T pbc="F F F"
H      -12.17574000       7.32406000     -11.49316000
O      -11.31886000       6.92345000     -11.30251000
H      -10.73875000       7.23580000     -12.00410000
H       -9.40907000       7.15464000     -13.73789000
O       -9.72448000       7.78026000     -13.07110000
H       -8.92019000       8.04354000     -12.62001000
