6
Properties=species:S:1:pos:R:3 frame=T 53=T |=T Written=T by=T MDAnalysis=T XYZWriter=T (release=T 2.4.3)=T pbc="F F F"
H       -6.31760000      10.48354000      13.53455000
O       -5.85795000      11.04952000      12.87128000
H       -5.30244000      11.58554000      13.45966000
H       -7.24294000       8.61625000      14.25852000
O       -7.27021000       9.48815000      14.70780000
H       -7.97643000      10.02276000      14.29478000
