6
Properties=species:S:1:pos:R:3 frame=T 9=T |=T Written=T by=T MDAnalysis=T XYZWriter=T (release=T 2.4.3)=T pbc="F F F"
H      -11.59489000      -5.73641000      13.05569000
O      -12.42162000      -5.45001000      12.68596000
H      -12.31958000      -5.83571000      11.82481000
H      -12.56075000      -2.77030000      14.57739000
O      -13.17365000      -3.04148000      13.91518000
H      -12.90890000      -3.92764000      13.66712000
