6
Properties=species:S:1:pos:R:3 frame=T 31=T |=T Written=T by=T MDAnalysis=T XYZWriter=T (release=T 2.4.3)=T pbc="F F F"
H      -11.87667000       2.56624000       1.30632000
O      -11.44837000       2.23163000       0.49826000
H      -12.16662000       1.88842000      -0.04366000
H      -13.43861000       2.28348000      -1.09275000
O      -12.92973000       1.83698000      -1.80142000
H      -13.51498000       1.10303000      -2.09223000
