6
Properties=species:S:1:pos:R:3 frame=T 5=T |=T Written=T by=T MDAnalysis=T XYZWriter=T (release=T 2.4.3)=T pbc="F F F"
H        9.82772000      -6.29932000     -10.65492000
O       10.15439000      -5.50267000     -11.06308000
H        9.47409000      -5.30246000     -11.72042000
H        8.16950000      -7.17555000     -12.45900000
O        8.16239000      -6.24414000     -12.76572000
H        7.29162000      -6.12177000     -13.16729000
