6
Properties=species:S:1:pos:R:3 frame=T 45=T |=T Written=T by=T MDAnalysis=T XYZWriter=T (release=T 2.4.3)=T pbc="F F F"
H      -17.41224000      -5.57942000      10.63225000
O      -16.74715000      -5.06367000      10.10199000
H      -17.07189000      -4.14752000      10.09107000
H      -16.62663000      -6.92999000       9.42846000
O      -16.62391000      -7.55706000       8.70820000
H      -16.74845000      -8.42725000       9.11816000
