6
Properties=species:S:1:pos:R:3 frame=T 17=T |=T Written=T by=T MDAnalysis=T XYZWriter=T (release=T 2.4.3)=T pbc="F F F"
H       -4.49150000       6.40063000      -2.24404000
O       -3.68645000       6.30708000      -2.75221000
H       -4.02292000       6.25849000      -3.67045000
H       -2.72127000       5.71895000      -1.41275000
O       -2.21561000       5.99883000      -0.59843000
H       -2.81496000       6.63813000      -0.17617000
