6
Properties=species:S:1:pos:R:3 frame=T 30=T |=T Written=T by=T MDAnalysis=T XYZWriter=T (release=T 2.4.3)=T pbc="F F F"
H       12.68976000     -15.20126000      -7.72215000
O       12.08758000     -14.82089000      -8.37489000
H       11.35451000     -14.44759000      -7.87715000
H       13.83018000     -17.00351000      -7.93912000
O       13.63779000     -16.56233000      -7.09596000
H       12.90788000     -17.09556000      -6.77135000
