6
Properties=species:S:1:pos:R:3 frame=T 50=T |=T Written=T by=T MDAnalysis=T XYZWriter=T (release=T 2.4.3)=T pbc="F F F"
H      -10.05097000      17.22710000       5.42780000
O      -10.26907000      17.75968000       4.64886000
H      -10.43932000      18.65639000       5.07063000
H      -10.53728000      16.83204000       1.64557000
O      -11.17537000      17.32327000       2.16362000
H      -10.63217000      17.63301000       2.93027000
