6
Properties=species:S:1:pos:R:3 frame=T 9=T |=T Written=T by=T MDAnalysis=T XYZWriter=T (release=T 2.4.3)=T pbc="F F F"
H       -6.76267000      -8.85072000       0.30796000
O       -6.70331000      -8.42981000      -0.57054000
H       -6.83648000      -7.46843000      -0.42878000
H       -8.26397000      -7.32615000      -3.40872000
O       -8.36337000      -6.96829000      -2.51725000
H       -7.69809000      -7.43058000      -2.00763000
