6
Properties=species:S:1:pos:R:3 frame=T 40=T |=T Written=T by=T MDAnalysis=T XYZWriter=T (release=T 2.4.3)=T pbc="F F F"
H        8.61078000      -3.80450000     -15.03814000
O        8.34407000      -2.86950000     -15.05018000
H        7.49409000      -2.88434000     -14.65293000
H        6.10902000      -3.14428000     -17.53066000
O        6.62813000      -3.89398000     -17.20994000
H        7.15774000      -3.46830000     -16.55445000
