6
Properties=species:S:1:pos:R:3 frame=T 44=T |=T Written=T by=T MDAnalysis=T XYZWriter=T (release=T 2.4.3)=T pbc="F F F"
H       -0.53149000      15.10091000      16.81828000
O       -0.98073000      15.35548000      16.00824000
H       -1.08017000      16.31553000      16.00030000
H       -0.92009000      15.03847000      18.98379000
O        0.00943000      14.84941000      18.77651000
H        0.40106000      15.72173000      18.87957000
