6
Properties=species:S:1:pos:R:3 frame=T 2=T |=T Written=T by=T MDAnalysis=T XYZWriter=T (release=T 2.4.3)=T pbc="F F F"
H       10.14792000       6.66437000      10.83178000
O        9.54544000       6.25851000      10.20007000
H       10.01317000       5.42771000      10.07057000
H        7.84534000       5.73438000       9.29532000
O        7.07575000       5.17438000       9.10922000
H        7.41224000       4.46121000       8.54071000
