6
Properties=species:S:1:pos:R:3 frame=T 19=T |=T Written=T by=T MDAnalysis=T XYZWriter=T (release=T 2.4.3)=T pbc="F F F"
H        7.37224000       8.51794000      13.13286000
O        7.20534000       7.61737000      13.41688000
H        7.88748000       7.06081000      13.04843000
H        7.87736000       5.99262000      11.28074000
O        7.64182000       6.64875000      10.61651000
H        6.82261000       6.31304000      10.26986000
