6
Properties=species:S:1:pos:R:3 frame=T 9=T |=T Written=T by=T MDAnalysis=T XYZWriter=T (release=T 2.4.3)=T pbc="F F F"
H      -19.01497000       3.50877000     -18.00747000
O      -18.50739000       3.46153000     -17.19112000
H      -18.60102000       2.56015000     -16.90133000
H      -17.64867000       0.15706000     -15.95463000
O      -18.41346000       0.56480000     -16.36889000
H      -18.95138000       0.88019000     -15.61534000
