6
Properties=species:S:1:pos:R:3 frame=T 27=T |=T Written=T by=T MDAnalysis=T XYZWriter=T (release=T 2.4.3)=T pbc="F F F"
H        0.75317000      -5.99887000      18.05471000
O       -0.03132000      -5.46939000      17.77518000
H       -0.00731000      -5.61733000      16.84218000
H       -0.72547000      -7.63052000      18.00794000
O       -1.18390000      -8.46763000      17.76471000
H       -1.84368000      -8.50688000      18.44152000
