6
Properties=species:S:1:pos:R:3 frame=T 39=T |=T Written=T by=T MDAnalysis=T XYZWriter=T (release=T 2.4.3)=T pbc="F F F"
H       -3.94973000      18.89593000      17.91112000
O       -4.79364000      18.94463000      17.49966000
H       -5.27378000      18.24639000      17.92762000
H       -4.96095000      17.98675000      15.61487000
O       -4.99514000      17.31703000      14.91931000
H       -4.58799000      16.55341000      15.32007000
