6
Properties=species:S:1:pos:R:3 frame=T 24=T |=T Written=T by=T MDAnalysis=T XYZWriter=T (release=T 2.4.3)=T pbc="F F F"
H       -5.35591000     -13.85015000      -0.91248000
O       -5.60144000     -14.48851000      -1.58706000
H       -5.36831000     -14.06143000      -2.40746000
H       -3.41080000     -12.54958000      -2.13848000
O       -3.76909000     -12.37989000      -1.27621000
H       -3.46623000     -11.50436000      -1.04704000
