6
Properties=species:S:1:pos:R:3 frame=T 40=T |=T Written=T by=T MDAnalysis=T XYZWriter=T (release=T 2.4.3)=T pbc="F F F"
H        6.80078000      -8.77446000     -14.15754000
O        6.74635000      -8.71226000     -13.18846000
H        6.25744000      -9.50194000     -12.94423000
H        6.87094000      -7.07140000     -12.14250000
O        7.21020000      -6.82441000     -11.25421000
H        6.42424000      -6.94483000     -10.73387000
