6
Properties=species:S:1:pos:R:3 frame=T 32=T |=T Written=T by=T MDAnalysis=T XYZWriter=T (release=T 2.4.3)=T pbc="F F F"
H        1.85829000      -3.65354000      -6.52234000
O        1.99078000      -4.36206000      -7.17792000
H        1.88707000      -5.15328000      -6.64028000
H        2.87896000      -5.05167000      -8.81640000
O        3.54043000      -5.56304000      -9.31483000
H        3.31657000      -6.49113000      -9.17588000
