6
Properties=species:S:1:pos:R:3 frame=T 22=T |=T Written=T by=T MDAnalysis=T XYZWriter=T (release=T 2.4.3)=T pbc="F F F"
H       -8.01509000       6.99273000      -6.42967000
O       -8.80731000       6.72718000      -5.91891000
H       -8.69984000       7.12931000      -5.03785000
H       -6.92067000       8.83928000      -6.50011000
O       -6.26453000       8.42420000      -5.93999000
H       -6.70396000       8.28747000      -5.07118000
