6
Properties=species:S:1:pos:R:3 frame=T 8=T |=T Written=T by=T MDAnalysis=T XYZWriter=T (release=T 2.4.3)=T pbc="F F F"
H        5.75379000      -2.80415000       6.38035000
O        5.65498000      -1.95788000       5.95280000
H        5.56967000      -2.18792000       5.01153000
H        5.34312000      -3.72233000       8.09844000
O        5.48289000      -4.31734000       7.34435000
H        6.43802000      -4.54373000       7.35146000
