6
Properties=species:S:1:pos:R:3 frame=T 8=T |=T Written=T by=T MDAnalysis=T XYZWriter=T (release=T 2.4.3)=T pbc="F F F"
H       -9.57686000      15.67255000      -8.69651000
O       -9.52218000      15.17392000      -9.50082000
H      -10.44044000      15.01219000      -9.70887000
H       -7.92748000      17.18752000      -8.70455000
O       -8.44243000      18.00620000      -8.59627000
H       -8.86583000      18.09197000      -9.44888000
