6
Properties=species:S:1:pos:R:3 frame=T 27=T |=T Written=T by=T MDAnalysis=T XYZWriter=T (release=T 2.4.3)=T pbc="F F F"
H      -16.99695000       3.43652000      11.92860000
O      -16.86804000       3.47468000      10.98404000
H      -16.46469000       2.63583000      10.73979000
H      -18.76274000       4.12944000      13.04607000
O      -18.54596000       3.56314000      13.77509000
H      -18.68418000       2.68747000      13.40073000
