6
Properties=species:S:1:pos:R:3 frame=T 32=T |=T Written=T by=T MDAnalysis=T XYZWriter=T (release=T 2.4.3)=T pbc="F F F"
H       10.13878000      -2.57024000     -11.57473000
O       10.27815000      -3.35522000     -11.04125000
H       10.90924000      -3.87920000     -11.58940000
H        9.87974000      -1.10656000     -13.06413000
O        9.58939000      -0.75762000     -12.18589000
H        8.87381000      -0.11835000     -12.35143000
