6
Properties=species:S:1:pos:R:3 frame=T 10=T |=T Written=T by=T MDAnalysis=T XYZWriter=T (release=T 2.4.3)=T pbc="F F F"
H      -15.95521000      11.76215000      16.19249000
O      -15.42198000      11.73896000      16.98580000
H      -15.15911000      12.65623000      17.02020000
H      -16.95537000       9.93249000      15.22773000
O      -16.90029000      10.67037000      14.63082000
H      -16.26901000      10.33992000      13.95531000
