6
Properties=species:S:1:pos:R:3 frame=T 21=T |=T Written=T by=T MDAnalysis=T XYZWriter=T (release=T 2.4.3)=T pbc="F F F"
H       -5.09179000      -6.15677000      -4.61139000
O       -4.21045000      -6.42097000      -4.31084000
H       -4.39949000      -7.28621000      -3.88403000
H       -3.41234000      -4.23501000      -5.39271000
O       -2.55092000      -4.67696000      -5.60806000
H       -2.65206000      -5.51282000      -5.12228000
