6
Properties=species:S:1:pos:R:3 frame=T 54=T |=T Written=T by=T MDAnalysis=T XYZWriter=T (release=T 2.4.3)=T pbc="F F F"
H       14.48286000     -11.71270000     -10.53888000
O       15.02528000     -11.41894000      -9.78166000
H       15.83037000     -11.93473000      -9.82160000
H       12.12374000     -12.23013000     -11.89882000
O       13.03496000     -11.98918000     -11.74837000
H       13.47558000     -12.75652000     -12.13548000
