6
Properties=species:S:1:pos:R:3 frame=T 4=T |=T Written=T by=T MDAnalysis=T XYZWriter=T (release=T 2.4.3)=T pbc="F F F"
H       17.70089000      -4.13434000     -11.63137000
O       17.27246000      -4.11368000     -12.50596000
H       17.75626000      -3.39205000     -12.95700000
H       17.45937000      -2.21964000      -9.95318000
O       17.47102000      -3.20065000      -9.96117000
H       18.38818000      -3.38082000      -9.68686000
