6
Properties=species:S:1:pos:R:3 frame=T 50=T |=T Written=T by=T MDAnalysis=T XYZWriter=T (release=T 2.4.3)=T pbc="F F F"
H       11.38923000      -8.05152000      -2.33099000
O       11.32522000      -8.23511000      -1.36620000
H       12.25146000      -8.16820000      -1.07449000
H       10.63260000      -9.85338000      -1.91274000
O       10.28864000     -10.60184000      -2.39990000
H       11.01529000     -10.87896000      -2.98758000
