6
Properties=species:S:1:pos:R:3 frame=T 17=T |=T Written=T by=T MDAnalysis=T XYZWriter=T (release=T 2.4.3)=T pbc="F F F"
H       16.05518000      -7.95021000       3.83289000
O       16.54712000      -7.19067000       4.15534000
H       16.83984000      -7.45289000       5.04399000
H       16.29764000      -9.36087000       1.98630000
O       16.12536000      -9.58760000       2.90429000
H       17.02529000      -9.79811000       3.22226000
