6
Properties=species:S:1:pos:R:3 frame=T 11=T |=T Written=T by=T MDAnalysis=T XYZWriter=T (release=T 2.4.3)=T pbc="F F F"
H        1.80568000      17.78494000       6.08541000
O        2.02181000      17.29491000       5.29250000
H        2.52703000      17.95334000       4.80631000
H        1.53100000      16.90903000       7.59747000
O        1.56636000      17.80738000       7.93190000
H        0.76316000      17.91772000       8.44808000
