6
Properties=species:S:1:pos:R:3 frame=T 16=T |=T Written=T by=T MDAnalysis=T XYZWriter=T (release=T 2.4.3)=T pbc="F F F"
H      -10.10138000       9.00165000       5.89369000
O      -10.03899000       9.80047000       6.45511000
H      -10.64709000       9.57998000       7.19638000
H      -10.58310000      10.71515000       3.55708000
O       -9.80073000      10.93730000       4.10240000
H      -10.05983000      10.56181000       4.95809000
