6
Properties=species:S:1:pos:R:3 frame=T 20=T |=T Written=T by=T MDAnalysis=T XYZWriter=T (release=T 2.4.3)=T pbc="F F F"
H       14.48467000      -6.09025000      13.79604000
O       15.06440000      -6.66781000      14.33206000
H       14.54936000      -7.49485000      14.33715000
H       14.97950000      -4.31099000      13.29730000
O       14.02672000      -4.38002000      13.30918000
H       13.83567000      -3.94593000      14.14758000
