6
Properties=species:S:1:pos:R:3 frame=T 46=T |=T Written=T by=T MDAnalysis=T XYZWriter=T (release=T 2.4.3)=T pbc="F F F"
H       -9.18594000      -6.38652000      -4.86036000
O       -9.38619000      -6.42860000      -3.92288000
H       -9.67627000      -7.33868000      -3.86136000
H       -7.67268000      -6.66115000      -3.53949000
O       -6.74984000      -6.57965000      -3.19266000
H       -6.41832000      -7.49265000      -3.25448000
