6
Properties=species:S:1:pos:R:3 frame=T 35=T |=T Written=T by=T MDAnalysis=T XYZWriter=T (release=T 2.4.3)=T pbc="F F F"
H       -9.56149000      -9.92930000     -10.21731000
O      -10.10975000      -9.67071000      -9.45786000
H       -9.62370000      -9.90545000      -8.66752000
H       -7.44557000     -10.62283000     -11.49623000
O       -8.37369000     -10.81192000     -11.59214000
H       -8.64885000     -10.33661000     -12.38868000
