6
Properties=species:S:1:pos:R:3 frame=T 31=T |=T Written=T by=T MDAnalysis=T XYZWriter=T (release=T 2.4.3)=T pbc="F F F"
H       14.30547000     -17.03498000       2.41223000
O       15.24636000     -17.06726000       2.28475000
H       15.33144000     -16.79302000       1.36395000
H       15.94637000     -18.58172000      -0.17099000
O       16.20086000     -17.74455000      -0.58806000
H       15.38280000     -17.27354000      -0.82336000
