6
Properties=species:S:1:pos:R:3 frame=T 3=T |=T Written=T by=T MDAnalysis=T XYZWriter=T (release=T 2.4.3)=T pbc="F F F"
H       -7.26098000       0.24047000      -1.16549000
O       -6.81572000       0.15020000      -0.28905000
H       -6.49978000      -0.76963000      -0.32203000
H       -4.95066000       2.92171000      -1.21420000
O       -4.93062000       2.36638000      -0.38992000
H       -5.49325000       1.61345000      -0.60420000
