6
Properties=species:S:1:pos:R:3 frame=T 22=T |=T Written=T by=T MDAnalysis=T XYZWriter=T (release=T 2.4.3)=T pbc="F F F"
H      -12.52133000      17.61912000       7.59125000
O      -13.47001000      17.77333000       7.55482000
H      -13.76991000      17.61522000       8.46176000
H      -13.93706000      14.39696000       8.05565000
O      -13.31896000      15.11548000       8.23553000
H      -13.45420000      15.62929000       7.43803000
