6
Properties=species:S:1:pos:R:3 frame=T 30=T |=T Written=T by=T MDAnalysis=T XYZWriter=T (release=T 2.4.3)=T pbc="F F F"
H       -0.84502000     -16.45057000      -4.98604000
O       -0.77104000     -16.71809000      -4.04941000
H       -1.65105000     -17.11849000      -3.91457000
H        0.64566000     -14.99652000      -5.63698000
O        0.19197000     -15.55051000      -6.31335000
H       -0.67709000     -15.09827000      -6.38825000
