6
Properties=species:S:1:pos:R:3 frame=T 20=T |=T Written=T by=T MDAnalysis=T XYZWriter=T (release=T 2.4.3)=T pbc="F F F"
H        8.42956000       1.01835000      -9.43252000
O        9.11513000       1.64816000      -9.16767000
H        9.65399000       1.19538000      -8.52812000
H       10.15550000       1.70832000     -11.85232000
O        9.76458000       2.57001000     -11.68449000
H        9.77132000       2.56036000     -10.71921000
