6
Properties=species:S:1:pos:R:3 frame=T 6=T |=T Written=T by=T MDAnalysis=T XYZWriter=T (release=T 2.4.3)=T pbc="F F F"
H       13.20249000     -14.62589000     -13.24096000
O       12.90835000     -15.33987000     -12.63941000
H       13.72957000     -15.58386000     -12.16826000
H       11.25108000     -18.00709000     -11.56362000
O       11.42085000     -17.68822000     -12.44893000
H       12.03178000     -16.94216000     -12.35394000
