6
Properties=species:S:1:pos:R:3 frame=T 16=T |=T Written=T by=T MDAnalysis=T XYZWriter=T (release=T 2.4.3)=T pbc="F F F"
H      -17.71004000       0.41497000      -2.69282000
O      -17.11502000       0.49746000      -3.47939000
H      -16.35808000       0.96972000      -3.12028000
H      -15.80674000       2.82366000      -1.32255000
O      -15.45693000       2.09249000      -1.87066000
H      -14.53361000       2.04831000      -1.58235000
