6
Properties=species:S:1:pos:R:3 frame=T 12=T |=T Written=T by=T MDAnalysis=T XYZWriter=T (release=T 2.4.3)=T pbc="F F F"
H       18.74731000      -5.85022000     -17.73952000
O       17.92318000      -5.33395000     -17.71073000
H       18.18904000      -4.60153000     -17.16159000
H       18.46765000      -3.64807000     -14.97925000
O       17.58940000      -4.06059000     -14.82394000
H       17.03154000      -3.82371000     -15.59198000
