6
Properties=species:S:1:pos:R:3 frame=T 48=T |=T Written=T by=T MDAnalysis=T XYZWriter=T (release=T 2.4.3)=T pbc="F F F"
H        6.55236000     -12.76359000       7.95197000
O        7.24996000     -13.23696000       8.43721000
H        7.90670000     -13.39346000       7.71444000
H        4.44865000     -11.78396000       8.36863000
O        4.87521000     -12.51743000       7.89057000
H        4.65050000     -13.34990000       8.34343000
