6
Properties=species:S:1:pos:R:3 frame=T 54=T |=T Written=T by=T MDAnalysis=T XYZWriter=T (release=T 2.4.3)=T pbc="F F F"
H       -2.75505000      -7.94042000       8.40157000
O       -3.30890000      -8.52674000       8.92649000
H       -3.12229000      -9.36557000       8.50916000
H       -2.98772000     -11.26330000       7.59334000
O       -2.59590000     -10.44476000       7.32508000
H       -1.67784000     -10.69515000       7.17380000
