6
Properties=species:S:1:pos:R:3 frame=T 41=T |=T Written=T by=T MDAnalysis=T XYZWriter=T (release=T 2.4.3)=T pbc="F F F"
H       10.62637000     -16.77581000      -7.83570000
O       10.51343000     -17.53436000      -7.25454000
H        9.59741000     -17.78867000      -7.37616000
H        7.61762000     -17.47721000      -9.42645000
O        8.34863000     -17.77502000      -8.90941000
H        8.79629000     -18.41561000      -9.51107000
