6
Properties=species:S:1:pos:R:3 frame=T 4=T |=T Written=T by=T MDAnalysis=T XYZWriter=T (release=T 2.4.3)=T pbc="F F F"
H      -14.36716000      -9.47650000      12.31572000
O      -14.57872000      -9.88416000      11.46930000
H      -14.08599000     -10.71803000      11.53504000
H      -14.81692000      -8.27147000      14.67692000
O      -14.68301000      -8.41357000      13.71356000
H      -15.54346000      -8.81327000      13.47897000
