6
Properties=species:S:1:pos:R:3 frame=T 37=T |=T Written=T by=T MDAnalysis=T XYZWriter=T (release=T 2.4.3)=T pbc="F F F"
H       15.45899000       3.48127000       8.08689000
O       15.84663000       3.05316000       8.85582000
H       16.78796000       3.09791000       8.64248000
H       14.95388000       4.02145000       6.05712000
O       15.81406000       4.16653000       6.44517000
H       16.07810000       5.07241000       6.19145000
