6
Properties=species:S:1:pos:R:3 frame=T 52=T |=T Written=T by=T MDAnalysis=T XYZWriter=T (release=T 2.4.3)=T pbc="F F F"
H        5.38130000       1.50205000       3.97968000
O        5.64925000       2.00814000       3.19161000
H        6.24131000       1.37200000       2.74809000
H        6.91249000       4.95918000       2.67616000
O        6.24035000       4.75420000       3.33279000
H        6.04605000       3.80944000       3.34510000
