6
Properties=species:S:1:pos:R:3 frame=T 44=T |=T Written=T by=T MDAnalysis=T XYZWriter=T (release=T 2.4.3)=T pbc="F F F"
H       -6.40933000       4.68043000      16.17662000
O       -5.97776000       4.79172000      17.04182000
H       -5.96790000       5.75122000      17.20458000
H       -5.75822000       8.25995000      18.38321000
O       -5.76136000       7.42521000      17.90623000
H       -4.83749000       7.30217000      17.74259000
