6
Properties=species:S:1:pos:R:3 frame=T 36=T |=T Written=T by=T MDAnalysis=T XYZWriter=T (release=T 2.4.3)=T pbc="F F F"
H       15.34484000      -8.18825000      10.29106000
O       14.64373000      -8.35000000      10.96844000
H       13.87579000      -8.18361000      10.41128000
H       12.44511000      -8.38864000       8.53760000
O       12.31806000      -7.95077000       9.37928000
H       11.44566000      -7.54112000       9.27653000
