6
Properties=species:S:1:pos:R:3 frame=T 9=T |=T Written=T by=T MDAnalysis=T XYZWriter=T (release=T 2.4.3)=T pbc="F F F"
H       14.13681000      10.15515000      13.41932000
O       14.87127000      10.48699000      13.94777000
H       15.64963000      10.08271000      13.46396000
H       16.33477000       8.66706000      12.43638000
O       16.96513000       8.73656000      13.16210000
H       16.90588000       7.85429000      13.49039000
