6
Properties=species:S:1:pos:R:3 frame=T 53=T |=T Written=T by=T MDAnalysis=T XYZWriter=T (release=T 2.4.3)=T pbc="F F F"
H        1.79762000      15.95551000     -13.55971000
O        2.42822000      15.65724000     -12.92127000
H        2.08178000      14.76835000     -12.82608000
H        0.47231000      17.72551000     -14.84310000
O        0.72336000      16.81911000     -15.08660000
H        1.43704000      16.91544000     -15.72068000
