6
Properties=species:S:1:pos:R:3 frame=T 18=T |=T Written=T by=T MDAnalysis=T XYZWriter=T (release=T 2.4.3)=T pbc="F F F"
H      -16.60025000       9.89272000       9.73269000
O      -17.51716000       9.90778000       9.36317000
H      -17.47414000       9.20279000       8.70857000
H      -15.09092000       7.88533000       9.75730000
O      -15.04327000       8.85422000       9.65267000
H      -14.10190000       9.03104000       9.65743000
