6
Properties=species:S:1:pos:R:3 frame=T 23=T |=T Written=T by=T MDAnalysis=T XYZWriter=T (release=T 2.4.3)=T pbc="F F F"
H      -10.76838000      -9.89549000       1.18928000
O       -9.97914000     -10.44490000       1.21161000
H       -9.42382000     -10.10603000       0.48842000
H       -9.86533000      -8.38065000      -0.68786000
O       -8.97484000      -8.74817000      -0.54333000
H       -8.64243000      -8.23658000       0.22661000
