6
Properties=species:S:1:pos:R:3 frame=T 0=T |=T Written=T by=T MDAnalysis=T XYZWriter=T (release=T 2.4.3)=T pbc="F F F"
H       13.46295000     -16.64545000      17.53507000
O       13.02633000     -17.08902000      18.27196000
H       12.61097000     -16.40480000      18.82768000
H       10.45622000     -15.61345000      16.78764000
O       10.86728000     -14.73171000      16.65229000
H       11.34797000     -14.54027000      17.46815000
