6
Properties=species:S:1:pos:R:3 frame=T 5=T |=T Written=T by=T MDAnalysis=T XYZWriter=T (release=T 2.4.3)=T pbc="F F F"
H       10.13563000       8.10564000       7.61419000
O        9.80457000       7.69596000       6.78438000
H        8.93874000       7.34717000       6.96354000
H       11.04588000       6.18065000       7.34111000
O       11.19457000       5.84670000       8.23605000
H       10.28825000       5.92183000       8.62266000
