6
Properties=species:S:1:pos:R:3 frame=T 25=T |=T Written=T by=T MDAnalysis=T XYZWriter=T (release=T 2.4.3)=T pbc="F F F"
H        3.47226000       0.42033000       4.33454000
O        3.24979000      -0.45517000       4.02327000
H        3.25785000      -0.37589000       3.05605000
H        3.71435000       3.12676000       4.12552000
O        4.15797000       2.61023000       4.79357000
H        4.60852000       3.31222000       5.28152000
