6
Properties=species:S:1:pos:R:3 frame=T 21=T |=T Written=T by=T MDAnalysis=T XYZWriter=T (release=T 2.4.3)=T pbc="F F F"
H       -6.14629000       9.22545000      -2.36684000
O       -6.95452000       9.13174000      -2.86897000
H       -7.11362000      10.02259000      -3.16416000
H       -8.05384000      12.05566000      -4.87348000
O       -8.62407000      11.60433000      -4.25237000
H       -8.74686000      12.24744000      -3.53202000
