6
Properties=species:S:1:pos:R:3 frame=T 33=T |=T Written=T by=T MDAnalysis=T XYZWriter=T (release=T 2.4.3)=T pbc="F F F"
H       -3.61940000      11.43978000      14.39526000
O       -4.45736000      11.26109000      14.87478000
H       -4.88690000      12.11025000      14.94797000
H       -5.21650000       8.77246000      17.14313000
O       -4.38255000       9.21349000      17.36654000
H       -4.46133000      10.06754000      16.95386000
