6
Properties=species:S:1:pos:R:3 frame=T 17=T |=T Written=T by=T MDAnalysis=T XYZWriter=T (release=T 2.4.3)=T pbc="F F F"
H       11.31632000     -17.98512000      12.50743000
O       12.01949000     -17.64748000      11.89891000
H       11.52736000     -17.11484000      11.24812000
H       14.32954000     -16.12599000      13.88952000
O       14.24310000     -16.74704000      13.13622000
H       13.30649000     -16.87204000      13.10824000
