6
Properties=species:S:1:pos:R:3 frame=T 18=T |=T Written=T by=T MDAnalysis=T XYZWriter=T (release=T 2.4.3)=T pbc="F F F"
H       -6.81123000      -6.01073000     -15.28066000
O       -7.39195000      -5.24936000     -15.51943000
H       -7.69247000      -5.41948000     -16.40029000
H       -6.41088000      -5.03888000     -18.37737000
O       -7.33835000      -4.81756000     -18.45687000
H       -7.73968000      -5.70516000     -18.59617000
