6
Properties=species:S:1:pos:R:3 frame=T 20=T |=T Written=T by=T MDAnalysis=T XYZWriter=T (release=T 2.4.3)=T pbc="F F F"
H       -9.97953000     -15.26767000      17.26782000
O      -10.56350000     -15.84772000      16.79433000
H      -10.71757000     -15.36020000      15.94383000
H      -10.50151000     -15.73679000      13.97728000
O      -11.33592000     -15.33686000      14.26268000
H      -11.93929000     -16.07329000      14.34739000
