6
Properties=species:S:1:pos:R:3 frame=T 38=T |=T Written=T by=T MDAnalysis=T XYZWriter=T (release=T 2.4.3)=T pbc="F F F"
H       14.14567000       6.99046000      -2.08865000
O       14.09118000       6.73691000      -1.17258000
H       14.69245000       7.33771000      -0.68279000
H       11.73977000       7.32144000       0.62785000
O       11.97896000       7.84312000      -0.14818000
H       12.55726000       7.21732000      -0.60859000
