6
Properties=species:S:1:pos:R:3 frame=T 49=T |=T Written=T by=T MDAnalysis=T XYZWriter=T (release=T 2.4.3)=T pbc="F F F"
H       -6.48945000      18.04717000     -10.56802000
O       -7.43468000      17.83189000     -10.62570000
H       -7.76274000      17.97910000      -9.73069000
H       -9.88122000      18.33945000      -9.34357000
O       -9.63317000      19.09119000      -8.82193000
H       -9.01707000      19.59742000      -9.37330000
