6
Properties=species:S:1:pos:R:3 frame=T 17=T |=T Written=T by=T MDAnalysis=T XYZWriter=T (release=T 2.4.3)=T pbc="F F F"
H      -17.23069000      11.63757000       3.79387000
O      -17.96857000      12.06049000       4.22309000
H      -18.53875000      12.41031000       3.54262000
H      -18.25587000      13.42241000       5.49736000
O      -18.27436000      14.31472000       5.85774000
H      -18.66632000      14.22412000       6.73985000
