6
Properties=species:S:1:pos:R:3 frame=T 27=T |=T Written=T by=T MDAnalysis=T XYZWriter=T (release=T 2.4.3)=T pbc="F F F"
H       15.72161000       6.79409000     -10.74225000
O       16.26332000       5.98844000     -10.59364000
H       16.29665000       5.54763000     -11.45103000
H       15.84236000       5.01355000     -13.81113000
O       15.30146000       4.80617000     -13.03787000
H       14.58214000       5.45306000     -13.12376000
