6
Properties=species:S:1:pos:R:3 frame=T 33=T |=T Written=T by=T MDAnalysis=T XYZWriter=T (release=T 2.4.3)=T pbc="F F F"
H       -1.61467000     -11.44177000      17.78034000
O       -2.45655000     -11.14890000      17.34614000
H       -2.25232000     -10.24224000      17.11271000
H       -0.80664000     -13.46063000      17.97468000
O       -0.74605000     -12.69566000      18.55601000
H       -0.44714000     -13.11825000      19.37330000
