6
Properties=species:S:1:pos:R:3 frame=T 2=T |=T Written=T by=T MDAnalysis=T XYZWriter=T (release=T 2.4.3)=T pbc="F F F"
H       -3.74510000       6.27188000      16.71170000
O       -4.44589000       6.84064000      16.37289000
H       -4.95107000       6.29236000      15.73687000
H       -7.01782000       7.68309000      15.82705000
O       -6.43626000       8.36548000      15.43150000
H       -5.66430000       8.30269000      15.97297000
