6
Properties=species:S:1:pos:R:3 frame=T 33=T |=T Written=T by=T MDAnalysis=T XYZWriter=T (release=T 2.4.3)=T pbc="F F F"
H       -0.97719000      -9.24018000       1.95281000
O       -1.04380000     -10.07267000       2.43502000
H       -0.50673000      -9.89374000       3.21732000
H       -3.01668000     -10.43854000       2.71776000
O       -3.51628000     -11.24759000       2.93858000
H       -3.10803000     -11.93892000       2.40197000
