6
Properties=species:S:1:pos:R:3 frame=T 23=T |=T Written=T by=T MDAnalysis=T XYZWriter=T (release=T 2.4.3)=T pbc="F F F"
H        5.30784000      11.55396000      11.24996000
O        6.24195000      11.48013000      11.44193000
H        6.25075000      11.33146000      12.41298000
H        5.43228000      14.33259000      10.36731000
O        5.96599000      14.22465000      11.17355000
H        6.29544000      13.31637000      11.09388000
