6
Properties=species:S:1:pos:R:3 frame=T 41=T |=T Written=T by=T MDAnalysis=T XYZWriter=T (release=T 2.4.3)=T pbc="F F F"
H       13.80662000     -16.05242000     -17.90600000
O       14.68850000     -16.22582000     -18.24955000
H       15.09690000     -15.40863000     -17.97670000
H       12.39287000     -17.38116000     -17.66011000
O       11.92292000     -16.62930000     -18.03215000
H       11.08922000     -16.65422000     -17.54945000
