6
Properties=species:S:1:pos:R:3 frame=T 54=T |=T Written=T by=T MDAnalysis=T XYZWriter=T (release=T 2.4.3)=T pbc="F F F"
H       -4.66372000     -12.60387000      17.92861000
O       -5.08340000     -11.74078000      18.14816000
H       -4.90893000     -11.18971000      17.36447000
H       -6.83644000     -12.10534000      17.48782000
O       -7.73172000     -12.50081000      17.34242000
H       -7.55274000     -13.11298000      16.59698000
