6
Properties=species:S:1:pos:R:3 frame=T 51=T |=T Written=T by=T MDAnalysis=T XYZWriter=T (release=T 2.4.3)=T pbc="F F F"
H        3.17164000       1.30295000       9.08971000
O        2.71414000       2.05342000       9.44954000
H        2.70004000       2.69780000       8.73190000
H        2.29334000       0.47083000      10.38988000
O        2.32698000      -0.50531000      10.50896000
H        3.13078000      -0.64008000      11.06942000
