6
Properties=species:S:1:pos:R:3 frame=T 10=T |=T Written=T by=T MDAnalysis=T XYZWriter=T (release=T 2.4.3)=T pbc="F F F"
H      -11.47833000       9.23577000      -8.47583000
O      -11.91759000       9.97254000      -8.92807000
H      -12.54670000      10.26984000      -8.26795000
H      -14.18455000       9.40495000      -6.57345000
O      -13.99283000      10.30478000      -6.84660000
H      -13.36001000      10.63880000      -6.19921000
