6
Properties=species:S:1:pos:R:3 frame=T 36=T |=T Written=T by=T MDAnalysis=T XYZWriter=T (release=T 2.4.3)=T pbc="F F F"
H        7.65027000       9.06959000      -1.27027000
O        6.80446000       8.70414000      -1.59884000
H        6.70796000       9.15036000      -2.45687000
H        7.06373000      10.95410000      -3.74112000
O        7.19205000      10.13311000      -4.22925000
H        8.11199000      10.22153000      -4.55276000
