6
Properties=species:S:1:pos:R:3 frame=T 6=T |=T Written=T by=T MDAnalysis=T XYZWriter=T (release=T 2.4.3)=T pbc="F F F"
H        9.01782000      14.16110000       8.78183000
O        9.47040000      15.01279000       8.65806000
H        9.39597000      15.27836000       7.72351000
H       10.90165000      15.68707000      10.78698000
O       11.64337000      15.66029000      10.15987000
H       11.15567000      15.42031000       9.34597000
