6
Properties=species:S:1:pos:R:3 frame=T 25=T |=T Written=T by=T MDAnalysis=T XYZWriter=T (release=T 2.4.3)=T pbc="F F F"
H       -9.60266000       5.90154000       0.09313000
O       -9.52643000       4.95046000       0.02585000
H      -10.07122000       4.77976000      -0.77009000
H      -10.44830000       6.37064000      -3.21687000
O      -10.67704000       5.54234000      -2.74764000
H       -9.83089000       5.18904000      -2.53016000
