6
Properties=species:S:1:pos:R:3 frame=T 9=T |=T Written=T by=T MDAnalysis=T XYZWriter=T (release=T 2.4.3)=T pbc="F F F"
H       12.61392000      -4.69730000      17.74345000
O       12.37059000      -5.30492000      18.46661000
H       11.87291000      -5.99735000      17.96780000
H       12.39539000      -7.68837000      15.51950000
O       12.97939000      -7.12465000      16.09946000
H       12.49555000      -7.15785000      16.93328000
