6
Properties=species:S:1:pos:R:3 frame=T 50=T |=T Written=T by=T MDAnalysis=T XYZWriter=T (release=T 2.4.3)=T pbc="F F F"
H        5.45918000      10.73764000     -11.53073000
O        5.86743000      10.15216000     -10.87690000
H        5.88779000      10.73693000     -10.13457000
H        5.62912000       7.64173000      -8.84349000
O        5.99470000       8.52127000      -8.88601000
H        5.99388000       8.73673000      -9.83358000
