6
Properties=species:S:1:pos:R:3 frame=T 14=T |=T Written=T by=T MDAnalysis=T XYZWriter=T (release=T 2.4.3)=T pbc="F F F"
H       13.92652000      11.06608000      -6.23320000
O       14.46210000      11.77945000      -5.85471000
H       13.90949000      12.03241000      -5.09805000
H       12.30733000       9.02642000      -7.12529000
O       12.46096000       9.74992000      -6.55154000
H       11.59650000      10.17124000      -6.48761000
