6
Properties=species:S:1:pos:R:3 frame=T 40=T |=T Written=T by=T MDAnalysis=T XYZWriter=T (release=T 2.4.3)=T pbc="F F F"
H        6.41602000      -0.82897000      12.07398000
O        6.17678000       0.01816000      11.68284000
H        5.60863000       0.45043000      12.34481000
H        7.77672000      -0.85887000      15.02174000
O        7.42660000      -0.05281000      14.61049000
H        7.35862000      -0.30653000      13.66619000
