6
Properties=species:S:1:pos:R:3 frame=T 15=T |=T Written=T by=T MDAnalysis=T XYZWriter=T (release=T 2.4.3)=T pbc="F F F"
H        4.74093000      -9.11436000      -2.27148000
O        5.53675000      -9.36641000      -2.73350000
H        5.50045000     -10.34620000      -2.65528000
H        6.00900000     -12.93616000      -2.14038000
O        6.18155000     -12.05351000      -2.48844000
H        6.40325000     -12.20715000      -3.44457000
