6
Properties=species:S:1:pos:R:3 frame=T 3=T |=T Written=T by=T MDAnalysis=T XYZWriter=T (release=T 2.4.3)=T pbc="F F F"
H      -16.81320000       5.12320000       6.91077000
O      -17.36037000       5.12060000       6.12557000
H      -17.27627000       5.99060000       5.78590000
H      -15.65039000       4.92412000       9.10373000
O      -16.22595000       4.53750000       8.41399000
H      -16.65175000       3.80915000       8.90908000
