6
Properties=species:S:1:pos:R:3 frame=T 12=T |=T Written=T by=T MDAnalysis=T XYZWriter=T (release=T 2.4.3)=T pbc="F F F"
H        2.95416000      -2.11899000     -11.74945000
O        2.29781000      -2.48776000     -12.37665000
H        1.80068000      -1.72018000     -12.69835000
H        0.97591000       0.60896000     -13.77228000
O        0.82358000      -0.31909000     -13.75110000
H        0.07080000      -0.43968000     -13.21018000
