6
Properties=species:S:1:pos:R:3 frame=T 29=T |=T Written=T by=T MDAnalysis=T XYZWriter=T (release=T 2.4.3)=T pbc="F F F"
H      -15.42681000      17.99323000       7.69926000
O      -15.40145000      17.74893000       8.66786000
H      -15.55799000      16.79617000       8.62483000
H      -16.95486000      17.49782000       6.03247000
O      -16.12272000      17.97892000       5.90664000
H      -15.68310000      17.42151000       5.25220000
