6
Properties=species:S:1:pos:R:3 frame=T 31=T |=T Written=T by=T MDAnalysis=T XYZWriter=T (release=T 2.4.3)=T pbc="F F F"
H       -0.75291000     -16.51582000     -15.65586000
O       -0.31890000     -15.74104000     -16.03743000
H       -0.88704000     -15.36862000     -16.68661000
H       -3.33008000     -17.87631000     -16.16164000
O       -2.60867000     -17.41514000     -15.72568000
H       -2.86452000     -16.47834000     -15.72389000
