6
Properties=species:S:1:pos:R:3 frame=T 9=T |=T Written=T by=T MDAnalysis=T XYZWriter=T (release=T 2.4.3)=T pbc="F F F"
H        7.81732000       9.39628000     -12.43311000
O        7.91678000       9.47674000     -11.45301000
H        7.01206000       9.44077000     -11.16748000
H        8.81170000      10.47103000     -14.05597000
O        8.05812000       9.98540000     -14.45314000
H        7.52398000      10.67632000     -14.90026000
