6
Properties=species:S:1:pos:R:3 frame=T 44=T |=T Written=T by=T MDAnalysis=T XYZWriter=T (release=T 2.4.3)=T pbc="F F F"
H       16.30753000      -2.88087000      -4.76490000
O       15.69278000      -3.50533000      -5.12123000
H       16.13878000      -4.34763000      -5.13374000
H       17.41249000      -0.60134000      -4.76600000
O       17.54043000      -1.59393000      -4.83593000
H       18.52836000      -1.68569000      -4.82453000
