6
Properties=species:S:1:pos:R:3 frame=T 28=T |=T Written=T by=T MDAnalysis=T XYZWriter=T (release=T 2.4.3)=T pbc="F F F"
H       -8.79065000      -5.84518000      -9.96458000
O       -9.67156000      -6.18947000      -9.77131000
H       -9.58576000      -7.07295000     -10.08386000
H       -8.88879000      -8.58165000     -10.97719000
O       -9.66011000      -9.12929000     -11.00354000
H      -10.00404000      -9.00757000     -11.88630000
