6
Properties=species:S:1:pos:R:3 frame=T 53=T |=T Written=T by=T MDAnalysis=T XYZWriter=T (release=T 2.4.3)=T pbc="F F F"
H        7.50776000      -2.55631000      10.24898000
O        7.20814000      -2.39712000       9.32667000
H        6.51819000      -3.05990000       9.20652000
H        7.76559000      -3.09308000       7.30892000
O        8.35252000      -2.81771000       6.59824000
H        8.69357000      -2.00240000       6.93352000
