6
Properties=species:S:1:pos:R:3 frame=T 32=T |=T Written=T by=T MDAnalysis=T XYZWriter=T (release=T 2.4.3)=T pbc="F F F"
H        7.32266000      -9.92998000     -17.57947000
O        7.40814000     -10.85392000     -17.36053000
H        7.79233000     -11.20485000     -18.18286000
H        5.18280000      -8.70262000     -18.74631000
O        5.85328000      -8.60005000     -18.04690000
H        5.35631000      -8.65528000     -17.19901000
