6
Properties=species:S:1:pos:R:3 frame=T 4=T |=T Written=T by=T MDAnalysis=T XYZWriter=T (release=T 2.4.3)=T pbc="F F F"
H      -17.16525000     -13.18191000      12.17188000
O      -16.99738000     -13.07290000      13.12273000
H      -16.06590000     -13.29259000      13.14607000
H      -18.84486000     -11.76396000      11.59667000
O      -18.26921000     -12.16254000      10.95078000
H      -18.38753000     -11.60100000      10.17934000
