6
Properties=species:S:1:pos:R:3 frame=T 26=T |=T Written=T by=T MDAnalysis=T XYZWriter=T (release=T 2.4.3)=T pbc="F F F"
H       13.19503000       7.08358000     -12.98552000
O       13.07934000       7.76246000     -12.31493000
H       12.35629000       8.30546000     -12.61896000
H       14.24227000       8.55395000     -11.21951000
O       14.83117000       9.11962000     -10.67327000
H       15.12661000       8.59254000      -9.93710000
