6
Properties=species:S:1:pos:R:3 frame=T 42=T |=T Written=T by=T MDAnalysis=T XYZWriter=T (release=T 2.4.3)=T pbc="F F F"
H       -0.06690000     -17.04466000       2.49867000
O        0.05351000     -17.77295000       1.86258000
H        0.68130000     -18.34157000       2.30812000
H       -0.06918000     -16.37715000       5.00978000
O       -0.37913000     -16.17294000       4.13281000
H       -0.59419000     -15.23988000       4.27242000
