6
Properties=species:S:1:pos:R:3 frame=T 16=T |=T Written=T by=T MDAnalysis=T XYZWriter=T (release=T 2.4.3)=T pbc="F F F"
H        4.08566000      14.23051000       8.43097000
O        3.37118000      13.58645000       8.33575000
H        3.76928000      12.91600000       7.76323000
H        5.11055000      10.78292000       7.40293000
O        4.28326000      11.27353000       7.27709000
H        3.64833000      10.58280000       7.08403000
