6
Properties=species:S:1:pos:R:3 frame=T 24=T |=T Written=T by=T MDAnalysis=T XYZWriter=T (release=T 2.4.3)=T pbc="F F F"
H        5.69272000      11.30546000      12.43540000
O        6.11722000      10.94042000      11.65340000
H        7.05747000      10.97631000      11.88366000
H        5.95805000       8.86722000      11.98129000
O        5.49019000       8.11414000      11.61441000
H        5.92171000       7.40644000      12.15094000
