6
Properties=species:S:1:pos:R:3 frame=T 33=T |=T Written=T by=T MDAnalysis=T XYZWriter=T (release=T 2.4.3)=T pbc="F F F"
H       -2.62477000     -10.99912000     -13.46073000
O       -1.83651000     -10.57749000     -13.81426000
H       -1.98815000     -10.61904000     -14.77484000
H       -0.37727000     -11.81304000     -14.40440000
O        0.39821000     -11.96986000     -14.96186000
H        0.56175000     -11.13339000     -15.42628000
