6
Properties=species:S:1:pos:R:3 frame=T 12=T |=T Written=T by=T MDAnalysis=T XYZWriter=T (release=T 2.4.3)=T pbc="F F F"
H       -6.22021000      -2.09387000     -10.09343000
O       -6.24325000      -2.88925000      -9.51491000
H       -6.96131000      -3.36978000      -9.89810000
H       -7.70968000      -4.85439000     -10.61714000
O       -8.10916000      -4.70287000      -9.74725000
H       -8.43892000      -5.57819000      -9.45105000
