6
Properties=species:S:1:pos:R:3 frame=T 29=T |=T Written=T by=T MDAnalysis=T XYZWriter=T (release=T 2.4.3)=T pbc="F F F"
H       -4.79805000       0.11075000      -2.77147000
O       -4.18329000       0.77202000      -2.42349000
H       -3.51411000       0.70414000      -3.08311000
H       -2.60142000      -0.54105000      -0.38288000
O       -3.18922000       0.07192000       0.09032000
H       -3.35739000       0.68398000      -0.62989000
