6
Properties=species:S:1:pos:R:3 frame=T 52=T |=T Written=T by=T MDAnalysis=T XYZWriter=T (release=T 2.4.3)=T pbc="F F F"
H      -19.30555000      -0.50644000     -14.29815000
O      -19.36390000      -1.25209000     -14.93345000
H      -18.47980000      -1.28715000     -15.29439000
H      -18.03004000      -0.06473000     -17.50496000
O      -17.59183000      -0.87360000     -17.27472000
H      -18.09453000      -1.55876000     -17.73401000
