6
Properties=species:S:1:pos:R:3 frame=T 43=T |=T Written=T by=T MDAnalysis=T XYZWriter=T (release=T 2.4.3)=T pbc="F F F"
H        1.87755000       9.29445000      -3.71100000
O        1.62012000       9.24846000      -2.75040000
H        0.83827000       9.77949000      -2.67205000
H        0.69089000       9.28412000       0.47894000
O        1.31385000       9.91724000       0.11449000
H        1.64059000       9.55790000      -0.73011000
