6
Properties=species:S:1:pos:R:3 frame=T 4=T |=T Written=T by=T MDAnalysis=T XYZWriter=T (release=T 2.4.3)=T pbc="F F F"
H      -10.85692000      12.66040000      -6.27410000
O      -11.13763000      12.08229000      -5.53370000
H      -12.02386000      12.46380000      -5.29338000
H      -10.64356000      14.16034000      -8.43227000
O      -10.69254000      14.21933000      -7.47728000
H       -9.82817000      14.62654000      -7.28997000
