6
Properties=species:S:1:pos:R:3 frame=T 3=T |=T Written=T by=T MDAnalysis=T XYZWriter=T (release=T 2.4.3)=T pbc="F F F"
H        4.35986000      17.58414000     -11.37288000
O        5.14006000      17.80836000     -11.86963000
H        5.70233000      17.10654000     -11.62437000
H        2.36057000      16.35742000     -11.35996000
O        2.43255000      16.94122000     -10.60727000
H        1.88765000      17.68383000     -10.90674000
