6
Properties=species:S:1:pos:R:3 frame=T 48=T |=T Written=T by=T MDAnalysis=T XYZWriter=T (release=T 2.4.3)=T pbc="F F F"
H      -10.29570000      14.06933000      -4.62387000
O      -10.36160000      13.27493000      -4.10262000
H       -9.92997000      12.63670000      -4.65348000
H       -7.14693000      10.58787000      -5.03251000
O       -7.81899000      11.23895000      -4.77523000
H       -8.28638000      11.35632000      -5.60556000
