6
Properties=species:S:1:pos:R:3 frame=T 2=T |=T Written=T by=T MDAnalysis=T XYZWriter=T (release=T 2.4.3)=T pbc="F F F"
H       -7.37872000     -12.53853000      -2.77650000
O       -7.45942000     -13.40985000      -3.17538000
H       -7.16262000     -14.04012000      -2.53484000
H       -8.58130000     -16.43878000      -1.77890000
O       -7.77272000     -16.22929000      -2.26988000
H       -7.40061000     -17.07283000      -2.61964000
