6
Properties=species:S:1:pos:R:3 frame=T 12=T |=T Written=T by=T MDAnalysis=T XYZWriter=T (release=T 2.4.3)=T pbc="F F F"
H       16.65600000      17.19224000     -14.17686000
O       16.49018000      16.53735000     -13.47440000
H       15.54691000      16.33169000     -13.47403000
H       14.07504000      17.10699000     -14.11467000
O       13.87297000      17.05100000     -13.16080000
H       14.18802000      17.89910000     -12.81608000
