6
Properties=species:S:1:pos:R:3 frame=T 13=T |=T Written=T by=T MDAnalysis=T XYZWriter=T (release=T 2.4.3)=T pbc="F F F"
H       -3.42401000      -8.59370000     -10.02643000
O       -3.18046000      -9.46461000     -10.38914000
H       -3.65431000     -10.05264000      -9.76892000
H       -5.12556000      -9.67386000      -8.70981000
O       -4.68321000     -10.48830000      -8.43239000
H       -4.12665000     -10.24185000      -7.69566000
