6
Properties=species:S:1:pos:R:3 frame=T 36=T |=T Written=T by=T MDAnalysis=T XYZWriter=T (release=T 2.4.3)=T pbc="F F F"
H        4.99144000      -8.32490000      10.92791000
O        4.69129000      -7.90071000      10.10866000
H        5.38966000      -8.12709000       9.52010000
H        5.98208000      -9.99161000       7.96701000
O        6.58110000      -9.46948000       8.49341000
H        6.73873000     -10.02862000       9.27296000
