6
Properties=species:S:1:pos:R:3 frame=T 49=T |=T Written=T by=T MDAnalysis=T XYZWriter=T (release=T 2.4.3)=T pbc="F F F"
H       18.82089000       9.18415000      -5.54118000
O       18.37176000       8.38363000      -5.24600000
H       18.38370000       7.84026000      -6.00897000
H       18.81404000       6.21406000      -8.41535000
O       19.22168000       6.77295000      -7.76496000
H       19.04835000       7.65048000      -8.10729000
