6
Properties=species:S:1:pos:R:3 frame=T 31=T |=T Written=T by=T MDAnalysis=T XYZWriter=T (release=T 2.4.3)=T pbc="F F F"
H       14.68253000      15.95651000     -11.39940000
O       14.67029000      15.02792000     -11.10051000
H       14.51440000      14.52138000     -11.93530000
H       14.21538000      17.59544000     -11.70067000
O       14.53703000      17.81238000     -10.81749000
H       15.44578000      18.13576000     -10.97343000
