6
Properties=species:S:1:pos:R:3 frame=T 46=T |=T Written=T by=T MDAnalysis=T XYZWriter=T (release=T 2.4.3)=T pbc="F F F"
H       10.72913000       9.49215000      15.25226000
O       11.63204000       9.37032000      14.93416000
H       11.77185000      10.17339000      14.39059000
H       12.15711000       7.81152000      15.49457000
O       12.68567000       7.25381000      16.06306000
H       12.32955000       6.37951000      15.95211000
