6
Properties=species:S:1:pos:R:3 frame=T 53=T |=T Written=T by=T MDAnalysis=T XYZWriter=T (release=T 2.4.3)=T pbc="F F F"
H       -2.50980000       4.45556000     -12.33699000
O       -2.36946000       5.28183000     -11.87472000
H       -2.96337000       5.22319000     -11.11168000
H       -0.84943000       3.95886000     -13.29488000
O       -1.42223000       3.46290000     -13.90704000
H       -1.07450000       3.76551000     -14.75042000
