6
Properties=species:S:1:pos:R:3 frame=T 0=T |=T Written=T by=T MDAnalysis=T XYZWriter=T (release=T 2.4.3)=T pbc="F F F"
H       18.54778000       9.63676000       1.67321000
O       18.77945000      10.54773000       1.46279000
H       18.60228000      10.97447000       2.30789000
H       17.37674000       7.43414000       2.47534000
O       18.17476000       7.91667000       2.21284000
H       18.82482000       7.23680000       1.99714000
