6
Properties=species:S:1:pos:R:3 frame=T 53=T |=T Written=T by=T MDAnalysis=T XYZWriter=T (release=T 2.4.3)=T pbc="F F F"
H        0.03276000      17.22022000      -6.79586000
O        0.21144000      16.65383000      -7.57513000
H       -0.60171000      16.60167000      -8.07957000
H        0.01156000      18.37223000      -5.25845000
O       -0.85432000      18.70790000      -5.47066000
H       -0.64658000      19.38352000      -6.12894000
