6
Properties=species:S:1:pos:R:3 frame=T 23=T |=T Written=T by=T MDAnalysis=T XYZWriter=T (release=T 2.4.3)=T pbc="F F F"
H      -14.53136000     -16.06074000       6.82196000
O      -13.81983000     -16.57518000       7.20464000
H      -14.15654000     -16.83209000       8.08066000
H      -13.44104000     -17.05506000       4.14461000
O      -13.54073000     -17.67457000       4.86932000
H      -13.55731000     -17.12241000       5.65923000
