6
Properties=species:S:1:pos:R:3 frame=T 35=T |=T Written=T by=T MDAnalysis=T XYZWriter=T (release=T 2.4.3)=T pbc="F F F"
H        9.51442000      -0.90503000      -8.89267000
O       10.43868000      -0.77045000      -9.06342000
H       10.40379000       0.11126000      -9.47299000
H       12.27744000      -2.24666000     -10.69691000
O       11.44763000      -2.04116000     -11.15766000
H       10.81972000      -1.79403000     -10.44976000
