6
Properties=species:S:1:pos:R:3 frame=T 34=T |=T Written=T by=T MDAnalysis=T XYZWriter=T (release=T 2.4.3)=T pbc="F F F"
H       -4.27040000       1.12552000      15.99558000
O       -3.45770000       0.67607000      15.73960000
H       -3.50413000       0.58870000      14.77957000
H       -2.80871000       2.08636000      16.46423000
O       -2.67733000       2.92460000      16.94431000
H       -1.82285000       2.84290000      17.41083000
