6
Properties=species:S:1:pos:R:3 frame=T 21=T |=T Written=T by=T MDAnalysis=T XYZWriter=T (release=T 2.4.3)=T pbc="F F F"
H        0.98928000      15.05342000     -12.13408000
O        1.74405000      15.47787000     -11.65266000
H        1.37765000      16.22289000     -11.19312000
H        0.75186000      17.54570000      -9.45440000
O        1.56237000      17.52456000      -9.94317000
H        1.70130000      18.46685000     -10.00170000
