6
Properties=species:S:1:pos:R:3 frame=T 5=T |=T Written=T by=T MDAnalysis=T XYZWriter=T (release=T 2.4.3)=T pbc="F F F"
H       -5.16892000       8.87317000      -6.26280000
O       -4.59052000       8.24527000      -6.73173000
H       -4.18680000       7.67000000      -6.05518000
H       -5.51434000       7.26654000      -8.16489000
O       -6.06084000       6.97371000      -8.91465000
H       -6.95029000       6.94492000      -8.52736000
