6
Properties=species:S:1:pos:R:3 frame=T 43=T |=T Written=T by=T MDAnalysis=T XYZWriter=T (release=T 2.4.3)=T pbc="F F F"
H       -0.36261000     -13.85798000       3.55719000
O        0.41698000     -14.39267000       3.70349000
H        0.96376000     -13.84325000       4.29868000
H        0.15155000     -16.20550000       6.30244000
O        0.45993000     -16.34493000       5.41100000
H        0.15393000     -15.50735000       4.98880000
