6
Properties=species:S:1:pos:R:3 frame=T 39=T |=T Written=T by=T MDAnalysis=T XYZWriter=T (release=T 2.4.3)=T pbc="F F F"
H      -18.11631000      -7.82554000      16.48274000
O      -18.89038000      -8.22123000      16.08638000
H      -18.73169000      -9.18311000      16.09033000
H      -15.91649000      -6.43301000      17.59261000
O      -16.71208000      -6.84737000      17.24996000
H      -17.43601000      -6.38224000      17.67439000
