6
Properties=species:S:1:pos:R:3 frame=T 47=T |=T Written=T by=T MDAnalysis=T XYZWriter=T (release=T 2.4.3)=T pbc="F F F"
H        6.31623000      -3.57209000       0.57300000
O        5.96517000      -4.47851000       0.42992000
H        6.59305000      -4.92078000      -0.15938000
H        7.57754000      -6.67971000      -1.54049000
O        7.21034000      -6.43113000      -0.69024000
H        6.83607000      -7.25859000      -0.29752000
