6
Properties=species:S:1:pos:R:3 frame=T 35=T |=T Written=T by=T MDAnalysis=T XYZWriter=T (release=T 2.4.3)=T pbc="F F F"
H      -10.47220000      -7.31897000       0.76706000
O      -10.49699000      -8.22451000       1.04557000
H      -10.74043000      -8.14264000       1.96383000
H      -11.49086000      -8.00903000       4.18693000
O      -11.13439000      -8.81901000       3.83665000
H      -10.34615000      -8.86541000       4.36996000
