6
Properties=species:S:1:pos:R:3 frame=T 32=T |=T Written=T by=T MDAnalysis=T XYZWriter=T (release=T 2.4.3)=T pbc="F F F"
H       -7.40066000      14.82721000      15.56073000
O       -8.04355000      14.12640000      15.68981000
H       -8.06174000      13.67241000      14.86497000
H       -8.14482000      13.61831000      12.26078000
O       -7.62352000      13.35378000      13.02852000
H       -7.17962000      12.55024000      12.71401000
