6
Properties=species:S:1:pos:R:3 frame=T 25=T |=T Written=T by=T MDAnalysis=T XYZWriter=T (release=T 2.4.3)=T pbc="F F F"
H       -5.50480000       0.09592000       3.75491000
O       -6.05798000      -0.65536000       3.48391000
H       -6.95172000      -0.32935000       3.64792000
H       -8.70561000       1.23638000       3.83286000
O       -7.99279000       1.19398000       3.14843000
H       -8.45020000       0.76831000       2.40032000
