6
Properties=species:S:1:pos:R:3 frame=T 38=T |=T Written=T by=T MDAnalysis=T XYZWriter=T (release=T 2.4.3)=T pbc="F F F"
H        0.13499000       3.98108000      -9.17061000
O        0.96740000       4.29725000      -8.81859000
H        1.66063000       3.89671000      -9.39942000
H       -0.53328000       6.85072000      -8.25157000
O        0.15983000       6.76723000      -8.92190000
H        0.51152000       5.86483000      -8.71766000
