6
Properties=species:S:1:pos:R:3 frame=T 53=T |=T Written=T by=T MDAnalysis=T XYZWriter=T (release=T 2.4.3)=T pbc="F F F"
H        3.88601000       9.62074000      14.27976000
O        4.55651000       9.54609000      13.59845000
H        4.13989000       9.92520000      12.81613000
H        4.52344000      10.14203000      10.60771000
O        3.99506000      10.66796000      11.21679000
H        3.12277000      10.20413000      11.25409000
