6
Properties=species:S:1:pos:R:3 frame=T 40=T |=T Written=T by=T MDAnalysis=T XYZWriter=T (release=T 2.4.3)=T pbc="F F F"
H       17.92983000      10.05046000      11.89945000
O       17.44768000      10.82231000      11.57382000
H       18.01513000      11.08615000      10.84103000
H       16.25557000       7.94380000      12.01776000
O       15.78135000       8.44997000      11.35488000
H       16.28075000       9.27033000      11.27410000
