6
Properties=species:S:1:pos:R:3 frame=T 2=T |=T Written=T by=T MDAnalysis=T XYZWriter=T (release=T 2.4.3)=T pbc="F F F"
H       12.99812000      11.55653000      12.00708000
O       13.75147000      11.20483000      12.48236000
H       14.04209000      10.39741000      12.00568000
H       11.02151000      11.52710000      12.12115000
O       11.40393000      11.99944000      11.36911000
H       11.13224000      11.44228000      10.62723000
