6
Properties=species:S:1:pos:R:3 frame=T 48=T |=T Written=T by=T MDAnalysis=T XYZWriter=T (release=T 2.4.3)=T pbc="F F F"
H      -16.38109000      -7.10861000      -9.92507000
O      -17.09904000      -6.55686000      -9.66869000
H      -17.82226000      -6.84950000     -10.25835000
H      -16.26125000      -4.21373000      -7.69885000
O      -16.12347000      -4.17206000      -8.65045000
H      -16.59196000      -4.94671000      -8.92556000
