6
Properties=species:S:1:pos:R:3 frame=T 20=T |=T Written=T by=T MDAnalysis=T XYZWriter=T (release=T 2.4.3)=T pbc="F F F"
H        7.96390000      13.53721000      -9.22059000
O        8.00895000      14.32915000      -8.65188000
H        7.89438000      15.02119000      -9.30316000
H        7.52030000      14.78331000      -6.99873000
O        7.49133000      15.22916000      -6.12210000
H        6.63843000      15.02104000      -5.80055000
