6
Properties=species:S:1:pos:R:3 frame=T 27=T |=T Written=T by=T MDAnalysis=T XYZWriter=T (release=T 2.4.3)=T pbc="F F F"
H       -9.40712000     -13.45994000      -2.34284000
O       -8.48368000     -13.28880000      -2.56925000
H       -7.97980000     -14.00666000      -2.16426000
H      -10.92357000     -13.28356000      -1.30832000
O      -11.01909000     -14.06894000      -1.88687000
H      -11.65602000     -13.85040000      -2.59941000
