6
Properties=species:S:1:pos:R:3 frame=T 22=T |=T Written=T by=T MDAnalysis=T XYZWriter=T (release=T 2.4.3)=T pbc="F F F"
H       16.16626000     -16.83817000      11.11314000
O       16.18316000     -17.36781000      10.29904000
H       17.01239000     -17.87275000      10.43328000
H       17.81820000     -14.77704000       9.35115000
O       16.88913000     -14.85649000       9.11160000
H       16.67506000     -15.80926000       9.26689000
