6
Properties=species:S:1:pos:R:3 frame=T 51=T |=T Written=T by=T MDAnalysis=T XYZWriter=T (release=T 2.4.3)=T pbc="F F F"
H      -14.93488000      17.30774000     -15.27190000
O      -14.97138000      17.69242000     -16.12216000
H      -14.05045000      17.66493000     -16.40153000
H      -13.46734000      15.66760000     -16.27619000
O      -12.63880000      15.51397000     -15.82581000
H      -12.77629000      14.65973000     -15.41365000
