6
Properties=species:S:1:pos:R:3 frame=T 45=T |=T Written=T by=T MDAnalysis=T XYZWriter=T (release=T 2.4.3)=T pbc="F F F"
H       -3.80195000      12.21369000      -7.30936000
O       -3.23518000      12.78204000      -7.87623000
H       -3.51556000      13.64471000      -7.59132000
H       -4.59390000      11.09737000     -10.27547000
O       -4.97022000      11.34556000      -9.40069000
H       -4.30388000      11.97678000      -9.05622000
