6
Properties=species:S:1:pos:R:3 frame=T 8=T |=T Written=T by=T MDAnalysis=T XYZWriter=T (release=T 2.4.3)=T pbc="F F F"
H       10.47738000      -4.07280000       6.40971000
O        9.84590000      -4.76167000       6.13060000
H       10.32553000      -5.60178000       6.21624000
H        7.64157000      -3.77018000       3.87978000
O        7.75696000      -3.83880000       4.84612000
H        8.61670000      -4.25675000       5.01564000
