6
Properties=species:S:1:pos:R:3 frame=T 37=T |=T Written=T by=T MDAnalysis=T XYZWriter=T (release=T 2.4.3)=T pbc="F F F"
H       15.47534000     -18.05893000     -17.78027000
O       15.49200000     -17.19748000     -18.22348000
H       15.05691000     -17.38435000     -19.06594000
H       15.96362000     -15.33708000     -15.56671000
O       15.49184000     -16.15069000     -15.83721000
H       15.51219000     -16.13313000     -16.78869000
