6
Properties=species:S:1:pos:R:3 frame=T 29=T |=T Written=T by=T MDAnalysis=T XYZWriter=T (release=T 2.4.3)=T pbc="F F F"
H      -12.70275000      -0.39302000       0.05702000
O      -11.81228000      -0.06288000      -0.15131000
H      -11.87051000       0.87863000       0.07041000
H       -9.06761000      -1.73686000       0.46514000
O      -10.04060000      -1.87687000       0.42056000
H      -10.33336000      -0.99267000       0.34149000
