6
Properties=species:S:1:pos:R:3 frame=T 48=T |=T Written=T by=T MDAnalysis=T XYZWriter=T (release=T 2.4.3)=T pbc="F F F"
H      -15.66450000      -9.49319000      15.64206000
O      -15.13006000      -9.01294000      14.98850000
H      -15.25096000      -8.10378000      15.24430000
H      -17.38183000      -7.49186000      15.15062000
O      -16.87089000      -6.80203000      15.60942000
H      -16.91506000      -6.04621000      14.99093000
