6
Properties=species:S:1:pos:R:3 frame=T 47=T |=T Written=T by=T MDAnalysis=T XYZWriter=T (release=T 2.4.3)=T pbc="F F F"
H       13.55570000      11.22537000     -10.45497000
O       12.88019000      11.53996000     -11.06153000
H       12.54434000      12.32065000     -10.63461000
H       15.59860000      10.59115000      -9.52388000
O       14.70739000      10.49190000      -9.23053000
H       14.79790000      10.30273000      -8.26805000
