6
Properties=species:S:1:pos:R:3 frame=T 30=T |=T Written=T by=T MDAnalysis=T XYZWriter=T (release=T 2.4.3)=T pbc="F F F"
H      -16.43023000      16.96848000     -15.07519000
O      -16.15595000      17.76099000     -14.58782000
H      -15.19730000      17.67416000     -14.64839000
H      -16.35872000      17.18791000     -11.52241000
O      -15.92771000      17.99632000     -11.20790000
H      -15.43934000      18.32132000     -11.98765000
