6
Properties=species:S:1:pos:R:3 frame=T 46=T |=T Written=T by=T MDAnalysis=T XYZWriter=T (release=T 2.4.3)=T pbc="F F F"
H       13.42412000      12.06787000       9.68820000
O       13.74914000      12.27880000       8.81178000
H       14.27102000      11.45338000       8.65417000
H       13.27982000      10.08609000       6.96853000
O       12.57406000       9.94687000       6.33909000
H       12.66904000      10.68506000       5.70770000
