6
Properties=species:S:1:pos:R:3 frame=T 39=T |=T Written=T by=T MDAnalysis=T XYZWriter=T (release=T 2.4.3)=T pbc="F F F"
H        8.58382000      14.38320000      14.84796000
O        7.89277000      14.64576000      14.24411000
H        7.14538000      14.00963000      14.41045000
H        9.82663000      12.41929000      14.75445000
O        9.90417000      12.87337000      13.87197000
H        9.09607000      13.37215000      13.75230000
