6
Properties=species:S:1:pos:R:3 frame=T 28=T |=T Written=T by=T MDAnalysis=T XYZWriter=T (release=T 2.4.3)=T pbc="F F F"
H       17.11290000       0.78017000       4.81615000
O       16.37168000       0.17972000       4.68894000
H       16.62300000      -0.40390000       3.99244000
H       17.46470000       2.99666000       3.59630000
O       17.96339000       2.55643000       4.29259000
H       18.76984000       2.38978000       3.80672000
