6
Properties=species:S:1:pos:R:3 frame=T 10=T |=T Written=T by=T MDAnalysis=T XYZWriter=T (release=T 2.4.3)=T pbc="F F F"
H       12.68805000      -9.86347000      -4.70518000
O       13.32770000     -10.48293000      -4.34506000
H       13.30259000     -10.31339000      -3.40005000
H       12.92475000     -11.32876000      -1.87992000
O       13.72992000     -10.86188000      -1.61496000
H       14.12658000     -11.55387000      -1.12662000
