6
Properties=species:S:1:pos:R:3 frame=T 14=T |=T Written=T by=T MDAnalysis=T XYZWriter=T (release=T 2.4.3)=T pbc="F F F"
H       15.73146000      13.68001000      16.74511000
O       15.85498000      14.67466000      16.74269000
H       15.64649000      14.84298000      15.80433000
H       16.31943000      11.54303000      14.63799000
O       16.27009000      11.84713000      15.53714000
H       17.08617000      12.32253000      15.68126000
