6
Properties=species:S:1:pos:R:3 frame=T 16=T |=T Written=T by=T MDAnalysis=T XYZWriter=T (release=T 2.4.3)=T pbc="F F F"
H       18.33973000      19.31300000       8.56458000
O       18.34200000      18.52457000       8.00635000
H       17.63233000      18.67467000       7.33910000
H       15.07627000      17.62268000       7.00213000
O       16.00160000      17.48077000       7.15895000
H       16.18844000      17.83227000       8.05640000
