6
Properties=species:S:1:pos:R:3 frame=T 50=T |=T Written=T by=T MDAnalysis=T XYZWriter=T (release=T 2.4.3)=T pbc="F F F"
H       -0.00631000      13.34542000       9.75316000
O        0.66775000      13.89403000      10.21173000
H        0.68071000      13.41979000      11.08360000
H        0.63879000      17.08776000      10.48767000
O        1.24705000      16.52852000      10.04071000
H        0.78325000      15.69045000       9.90060000
