6
Properties=species:S:1:pos:R:3 frame=T 43=T |=T Written=T by=T MDAnalysis=T XYZWriter=T (release=T 2.4.3)=T pbc="F F F"
H        0.13806000      16.25186000      11.79487000
O        0.35170000      15.81973000      10.98629000
H       -0.04219000      14.94865000      11.15499000
H        2.19576000      15.35017000      10.55259000
O        2.99283000      14.89985000      10.24579000
H        3.68976000      15.44396000      10.56025000
