6
Properties=species:S:1:pos:R:3 frame=T 38=T |=T Written=T by=T MDAnalysis=T XYZWriter=T (release=T 2.4.3)=T pbc="F F F"
H        2.44000000     -17.37803000     -11.98896000
O        3.15321000     -18.01569000     -11.85574000
H        3.86697000     -17.43864000     -11.65500000
H        2.12828000     -15.39206000     -11.10981000
O        1.60625000     -15.87395000     -11.80035000
H        0.69747000     -15.51394000     -11.81321000
