6
Properties=species:S:1:pos:R:3 frame=T 24=T |=T Written=T by=T MDAnalysis=T XYZWriter=T (release=T 2.4.3)=T pbc="F F F"
H        9.03002000     -15.73424000     -10.56580000
O        9.58199000     -15.08583000     -10.10377000
H        9.47985000     -14.27974000     -10.62500000
H        9.49374000     -12.27987000     -12.01537000
O        8.90044000     -12.53099000     -11.28004000
H        7.98964000     -12.48990000     -11.69137000
