6
Properties=species:S:1:pos:R:3 frame=T 44=T |=T Written=T by=T MDAnalysis=T XYZWriter=T (release=T 2.4.3)=T pbc="F F F"
H       18.95634000       7.03798000      17.42758000
O       18.13342000       7.13501000      16.92813000
H       17.80079000       6.24059000      16.79354000
H       17.58921000       7.81178000      18.62115000
O       17.25412000       8.58194000      19.11929000
H       16.81901000       9.15037000      18.47870000
