6
Properties=species:S:1:pos:R:3 frame=T 16=T |=T Written=T by=T MDAnalysis=T XYZWriter=T (release=T 2.4.3)=T pbc="F F F"
H        8.56359000       8.50070000      12.38126000
O        8.02365000       8.35854000      11.56146000
H        7.98476000       9.24878000      11.13075000
H        6.05575000       8.41831000      11.14945000
O        5.30711000       8.82451000      11.61673000
H        5.29489000       9.70916000      11.21903000
