6
Properties=species:S:1:pos:R:3 frame=T 46=T |=T Written=T by=T MDAnalysis=T XYZWriter=T (release=T 2.4.3)=T pbc="F F F"
H       15.21862000      -2.98430000     -14.18553000
O       14.92266000      -3.92121000     -14.25599000
H       14.13969000      -3.93103000     -13.75117000
H       13.99763000      -0.71821000     -14.64635000
O       14.34343000      -1.13762000     -13.84946000
H       15.19992000      -0.70787000     -13.66725000
