6
Properties=species:S:1:pos:R:3 frame=T 42=T |=T Written=T by=T MDAnalysis=T XYZWriter=T (release=T 2.4.3)=T pbc="F F F"
H        7.11936000     -10.75663000     -16.35152000
O        6.70834000     -11.07277000     -15.50652000
H        5.94772000     -11.60748000     -15.77547000
H        5.44393000     -12.87417000     -13.46617000
O        5.76657000     -13.35482000     -14.24064000
H        6.51423000     -12.79471000     -14.49481000
