6
Properties=species:S:1:pos:R:3 frame=T 23=T |=T Written=T by=T MDAnalysis=T XYZWriter=T (release=T 2.4.3)=T pbc="F F F"
H       15.79633000     -18.47158000      14.60150000
O       15.06540000     -18.76166000      15.19064000
H       14.27734000     -18.22552000      14.92784000
H       16.09108000     -17.81432000      16.40598000
O       16.55015000     -16.94095000      16.50414000
H       17.38344000     -17.19460000      16.93719000
