6
Properties=species:S:1:pos:R:3 frame=T 43=T |=T Written=T by=T MDAnalysis=T XYZWriter=T (release=T 2.4.3)=T pbc="F F F"
H      -14.24588000     -13.05479000      -0.49862000
O      -13.93057000     -12.49957000       0.24959000
H      -14.53213000     -11.74117000       0.26496000
H      -14.19467000     -13.07390000      -2.61502000
O      -14.71375000     -13.57667000      -1.95965000
H      -14.51245000     -14.48919000      -2.23445000
