6
Properties=species:S:1:pos:R:3 frame=T 15=T |=T Written=T by=T MDAnalysis=T XYZWriter=T (release=T 2.4.3)=T pbc="F F F"
H        7.15797000       5.40172000      14.38715000
O        7.86410000       6.01259000      14.68282000
H        7.57299000       6.27352000      15.56621000
H        5.94525000       4.81172000      12.24765000
O        6.13830000       4.65648000      13.19328000
H        5.40699000       4.11424000      13.42424000
