6
Properties=species:S:1:pos:R:3 frame=T 36=T |=T Written=T by=T MDAnalysis=T XYZWriter=T (release=T 2.4.3)=T pbc="F F F"
H        6.46849000     -12.84588000      12.74087000
O        6.31523000     -11.91967000      12.54627000
H        5.37611000     -11.89720000      12.59261000
H        8.10155000     -11.81038000      13.08926000
O        8.90508000     -11.40614000      13.41797000
H        9.51443000     -12.13851000      13.53537000
