6
Properties=species:S:1:pos:R:3 frame=T 36=T |=T Written=T by=T MDAnalysis=T XYZWriter=T (release=T 2.4.3)=T pbc="F F F"
H        3.82133000      17.49824000     -16.58525000
O        3.33547000      16.79266000     -16.12765000
H        2.44174000      17.12260000     -15.93782000
H        1.08702000      18.58910000     -16.69220000
O        0.91659000      18.21198000     -15.81555000
H        0.20186000      17.57139000     -15.91130000
