6
Properties=species:S:1:pos:R:3 frame=T 35=T |=T Written=T by=T MDAnalysis=T XYZWriter=T (release=T 2.4.3)=T pbc="F F F"
H        9.63541000      -0.35742000      14.21113000
O        9.98995000       0.51931000      14.11561000
H       10.86475000       0.33298000      14.51238000
H        9.62244000       2.70560000      11.80833000
O       10.12676000       2.74427000      12.64619000
H       10.25821000       1.81671000      12.88874000
