6
Properties=species:S:1:pos:R:3 frame=T 46=T |=T Written=T by=T MDAnalysis=T XYZWriter=T (release=T 2.4.3)=T pbc="F F F"
H      -10.19489000       9.64902000      -6.54104000
O       -9.42427000       9.58381000      -7.09682000
H       -9.71086000      10.14249000      -7.84012000
H      -11.55093000       9.57221000      -3.99863000
O      -10.91811000       9.83515000      -4.70349000
H      -11.49253000      10.37303000      -5.30835000
