6
Properties=species:S:1:pos:R:3 frame=T 25=T |=T Written=T by=T MDAnalysis=T XYZWriter=T (release=T 2.4.3)=T pbc="F F F"
H      -14.15374000     -14.47001000     -10.70074000
O      -13.26884000     -14.86625000     -10.67745000
H      -13.39575000     -15.73289000     -11.07280000
H      -12.21600000     -13.42354000     -13.28219000
O      -11.87590000     -14.12159000     -12.74849000
H      -12.32997000     -14.04712000     -11.88930000
