6
Properties=species:S:1:pos:R:3 frame=T 52=T |=T Written=T by=T MDAnalysis=T XYZWriter=T (release=T 2.4.3)=T pbc="F F F"
H       10.40355000     -14.57744000       4.44340000
O       11.10498000     -14.94636000       4.94810000
H       10.81641000     -14.80328000       5.86433000
H       11.13143000     -14.72810000       8.44112000
O       11.41797000     -14.28552000       7.62500000
H       11.13947000     -13.32585000       7.72106000
