6
Properties=species:S:1:pos:R:3 frame=T 53=T |=T Written=T by=T MDAnalysis=T XYZWriter=T (release=T 2.4.3)=T pbc="F F F"
H       -3.87241000     -13.33974000     -12.74897000
O       -3.59908000     -14.20932000     -12.45029000
H       -2.64054000     -14.05674000     -12.31474000
H       -4.98080000     -11.45019000     -13.00294000
O       -4.88704000     -12.13804000     -13.67399000
H       -5.38642000     -11.80732000     -14.43698000
