6
Properties=species:S:1:pos:R:3 frame=T 28=T |=T Written=T by=T MDAnalysis=T XYZWriter=T (release=T 2.4.3)=T pbc="F F F"
H       -7.59480000       9.43640000       8.00372000
O       -7.95535000       8.80400000       7.36706000
H       -8.23790000       9.40485000       6.65594000
H       -7.02924000      10.30689000      10.46730000
O       -6.79130000      10.06709000       9.53407000
H       -6.33156000      10.88213000       9.25365000
