6
Properties=species:S:1:pos:R:3 frame=T 14=T |=T Written=T by=T MDAnalysis=T XYZWriter=T (release=T 2.4.3)=T pbc="F F F"
H      -15.73716000      -2.25805000       1.75446000
O      -14.81533000      -1.99954000       1.73624000
H      -14.44088000      -2.37854000       0.93704000
H      -15.35030000      -4.13120000      -0.71519000
O      -14.71494000      -3.41083000      -0.69800000
H      -14.55448000      -3.24333000      -1.63279000
