6
Properties=species:S:1:pos:R:3 frame=T 34=T |=T Written=T by=T MDAnalysis=T XYZWriter=T (release=T 2.4.3)=T pbc="F F F"
H      -11.40301000      15.20056000      -9.61541000
O      -11.54778000      15.16321000      -8.66081000
H      -11.37379000      14.22760000      -8.50122000
H      -11.32835000      14.97704000     -11.93904000
O      -12.01749000      14.56498000     -11.37904000
H      -11.70867000      13.63748000     -11.37596000
