6
Properties=species:S:1:pos:R:3 frame=T 29=T |=T Written=T by=T MDAnalysis=T XYZWriter=T (release=T 2.4.3)=T pbc="F F F"
H       -0.96769000       0.98565000      11.03250000
O       -0.75418000       0.10234000      10.73869000
H       -1.20525000      -0.47849000      11.36161000
H       -1.21062000       1.18829000       9.27399000
O       -1.27183000       2.07006000       8.87533000
H       -0.40174000       2.16884000       8.44342000
