6
Properties=species:S:1:pos:R:3 frame=T 30=T |=T Written=T by=T MDAnalysis=T XYZWriter=T (release=T 2.4.3)=T pbc="F F F"
H        9.56781000     -12.22134000       0.69982000
O        9.56845000     -11.28834000       0.50015000
H        9.75081000     -11.30103000      -0.45840000
H        9.28337000     -14.83743000       0.85929000
O        9.18135000     -13.89312000       0.68534000
H        8.85274000     -13.85400000      -0.22575000
