6
Properties=species:S:1:pos:R:3 frame=T 0=T |=T Written=T by=T MDAnalysis=T XYZWriter=T (release=T 2.4.3)=T pbc="F F F"
H       18.69513000      -7.53551000     -12.30288000
O       18.74945000      -7.21541000     -13.23773000
H       18.57170000      -6.23364000     -13.14524000
H       15.39251000      -7.67460000     -11.67351000
O       15.74187000      -7.63897000     -12.58136000
H       16.52619000      -7.07523000     -12.52820000
