6
Properties=species:S:1:pos:R:3 frame=T 48=T |=T Written=T by=T MDAnalysis=T XYZWriter=T (release=T 2.4.3)=T pbc="F F F"
H       17.96066000      10.65573000       4.81969000
O       17.87477000       9.72366000       5.10185000
H       18.78150000       9.44900000       5.21542000
H       18.80044000       8.28840000       3.84345000
O       18.69714000       7.92416000       2.92877000
H       17.75882000       7.82775000       2.84617000
