6
Properties=species:S:1:pos:R:3 frame=T 25=T |=T Written=T by=T MDAnalysis=T XYZWriter=T (release=T 2.4.3)=T pbc="F F F"
H       -6.29151000      -4.48475000       1.54522000
O       -5.73789000      -5.27016000       1.63320000
H       -4.98222000      -5.09388000       1.06584000
H       -3.50871000      -4.73101000      -1.20927000
O       -4.18025000      -5.13250000      -0.66286000
H       -4.65896000      -5.71894000      -1.26604000
