6
Properties=species:S:1:pos:R:3 frame=T 25=T |=T Written=T by=T MDAnalysis=T XYZWriter=T (release=T 2.4.3)=T pbc="F F F"
H        9.63511000      -9.38030000      -9.18286000
O        9.70874000      -9.76573000     -10.03819000
H        9.71055000     -10.70366000      -9.90341000
H        9.62781000      -8.94110000     -11.85840000
O        9.60537000      -8.04697000     -12.20161000
H        9.42071000      -7.54471000     -11.39260000
