6
Properties=species:S:1:pos:R:3 frame=T 10=T |=T Written=T by=T MDAnalysis=T XYZWriter=T (release=T 2.4.3)=T pbc="F F F"
H        0.06314000      -4.22084000     -14.79188000
O        0.14809000      -3.35514000     -15.23916000
H        0.98214000      -3.06656000     -14.87770000
H       -1.11293000      -6.55368000     -14.86984000
O       -0.58691000      -5.81758000     -14.55410000
H        0.32493000      -6.01553000     -14.77941000
