6
Properties=species:S:1:pos:R:3 frame=T 7=T |=T Written=T by=T MDAnalysis=T XYZWriter=T (release=T 2.4.3)=T pbc="F F F"
H        3.80131000      -0.99159000       6.44488000
O        3.66792000      -0.65267000       7.36247000
H        2.70208000      -0.66220000       7.46524000
H        4.76118000      -1.19134000       8.61722000
O        4.94504000      -1.50665000       9.50255000
H        4.19941000      -1.13878000       9.95932000
