6
Properties=species:S:1:pos:R:3 frame=T 46=T |=T Written=T by=T MDAnalysis=T XYZWriter=T (release=T 2.4.3)=T pbc="F F F"
H        5.55485000       3.51062000     -17.51905000
O        4.67873000       3.43357000     -17.15301000
H        4.36077000       4.33723000     -17.19377000
H        2.67946000       0.95386000     -18.39216000
O        3.08126000       1.21979000     -19.26269000
H        2.99303000       2.16048000     -19.21422000
