6
Properties=species:S:1:pos:R:3 frame=T 0=T |=T Written=T by=T MDAnalysis=T XYZWriter=T (release=T 2.4.3)=T pbc="F F F"
H       11.02454000     -11.65465000     -18.51376000
O       10.20553000     -11.20787000     -18.26634000
H       10.42762000     -10.68152000     -17.52561000
H       12.17583000     -14.02149000     -18.54021000
O       11.95863000     -14.94662000     -18.46239000
H       11.17979000     -14.91109000     -17.97089000
