6
Properties=species:S:1:pos:R:3 frame=T 27=T |=T Written=T by=T MDAnalysis=T XYZWriter=T (release=T 2.4.3)=T pbc="F F F"
H      -16.16858000       6.28063000      -9.82250000
O      -15.66432000       5.74802000      -9.17309000
H      -15.61931000       4.81914000      -9.48444000
H      -17.99202000       6.03947000     -10.52160000
O      -18.06463000       6.26815000      -9.60430000
H      -17.30448000       5.81030000      -9.22710000
