6
Properties=species:S:1:pos:R:3 frame=T 15=T |=T Written=T by=T MDAnalysis=T XYZWriter=T (release=T 2.4.3)=T pbc="F F F"
H        1.81051000      -1.33212000     -13.88961000
O        0.89169000      -1.64796000     -13.88775000
H        0.34599000      -0.85735000     -13.80969000
H        1.66074000       1.13854000     -14.67296000
O        2.31279000       0.57611000     -14.20584000
H        2.21894000       0.77145000     -13.25216000
