6
Properties=species:S:1:pos:R:3 frame=T 21=T |=T Written=T by=T MDAnalysis=T XYZWriter=T (release=T 2.4.3)=T pbc="F F F"
H      -13.52219000       3.39446000      -5.62650000
O      -12.82627000       3.64510000      -5.01136000
H      -13.32770000       4.14617000      -4.36173000
H      -15.26686000       3.80923000      -5.21556000
O      -15.38729000       4.45667000      -4.49135000
H      -15.52688000       5.26539000      -4.96358000
