6
Properties=species:S:1:pos:R:3 frame=T 9=T |=T Written=T by=T MDAnalysis=T XYZWriter=T (release=T 2.4.3)=T pbc="F F F"
H        0.24700000      -7.27691000     -17.10065000
O        0.17838000      -7.21464000     -16.15299000
H        0.94400000      -7.73357000     -15.80656000
H        0.67431000     -10.13488000     -17.19480000
O       -0.21227000      -9.74904000     -17.13647000
H       -0.00367000      -8.99154000     -16.55131000
