6
Properties=species:S:1:pos:R:3 frame=T 0=T |=T Written=T by=T MDAnalysis=T XYZWriter=T (release=T 2.4.3)=T pbc="F F F"
H        5.60147000       9.11701000      -6.09909000
O        6.09467000       8.27715000      -6.14749000
H        5.54451000       7.69710000      -6.69139000
H        5.63330000      10.46364000      -7.96798000
O        5.08270000       9.84096000      -8.47672000
H        4.80747000       9.08681000      -7.91790000
