6
Properties=species:S:1:pos:R:3 frame=T 18=T |=T Written=T by=T MDAnalysis=T XYZWriter=T (release=T 2.4.3)=T pbc="F F F"
H       15.24287000     -17.47323000      -3.49527000
O       16.15970000     -17.60604000      -3.71035000
H       16.26280000     -17.12555000      -4.56511000
H       13.19693000     -18.58850000      -3.61699000
O       13.48148000     -18.55672000      -2.68854000
H       13.09231000     -17.73089000      -2.35020000
