6
Properties=species:S:1:pos:R:3 frame=T 32=T |=T Written=T by=T MDAnalysis=T XYZWriter=T (release=T 2.4.3)=T pbc="F F F"
H       -7.86142000       2.99615000     -16.56771000
O       -7.47411000       2.46267000     -15.87726000
H       -8.14393000       2.40822000     -15.16222000
H       -8.22321000       0.84910000     -16.63171000
O       -8.23225000       0.11436000     -17.24735000
H       -9.09136000       0.25788000     -17.66475000
