6
Properties=species:S:1:pos:R:3 frame=T 8=T |=T Written=T by=T MDAnalysis=T XYZWriter=T (release=T 2.4.3)=T pbc="F F F"
H       10.30626000     -18.31941000     -18.19428000
O        9.68315000     -17.63080000     -18.46466000
H       10.17835000     -16.79484000     -18.38905000
H       10.18761000     -14.73225000     -18.90196000
O       10.73717000     -15.31780000     -18.33163000
H       10.62236000     -14.89561000     -17.49415000
