6
Properties=species:S:1:pos:R:3 frame=T 31=T |=T Written=T by=T MDAnalysis=T XYZWriter=T (release=T 2.4.3)=T pbc="F F F"
H       13.95888000     -14.41265000       7.29832000
O       14.35184000     -14.34102000       8.14847000
H       14.08673000     -13.44311000       8.36877000
H       12.83037000     -14.85767000       5.69919000
O       13.38936000     -14.11698000       5.42143000
H       14.17233000     -14.54024000       5.07117000
