6
Properties=species:S:1:pos:R:3 frame=T 9=T |=T Written=T by=T MDAnalysis=T XYZWriter=T (release=T 2.4.3)=T pbc="F F F"
H       17.26409000      -0.38490000      13.94381000
O       17.93578000       0.31464000      13.96788000
H       18.60938000       0.03236000      14.63814000
H       15.61073000      -1.69533000      14.00340000
O       16.49664000      -1.80144000      14.31175000
H       16.38699000      -2.21119000      15.15202000
