6
Properties=species:S:1:pos:R:3 frame=T 45=T |=T Written=T by=T MDAnalysis=T XYZWriter=T (release=T 2.4.3)=T pbc="F F F"
H      -14.57661000       1.49626000       8.80453000
O      -13.87710000       1.53125000       9.45685000
H      -13.12547000       1.36363000       8.85650000
H      -16.01216000       1.18980000       7.36008000
O      -16.34757000       1.61365000       8.17527000
H      -17.29725000       1.46661000       8.05699000
