6
Properties=species:S:1:pos:R:3 frame=T 6=T |=T Written=T by=T MDAnalysis=T XYZWriter=T (release=T 2.4.3)=T pbc="F F F"
H        2.31070000       4.55854000      11.31308000
O        1.52205000       4.00245000      11.46006000
H        1.72458000       3.21816000      10.98840000
H        3.59430000       6.53439000      12.23670000
O        3.96530000       5.79600000      11.73351000
H        3.87196000       6.11215000      10.83103000
