6
Properties=species:S:1:pos:R:3 frame=T 5=T |=T Written=T by=T MDAnalysis=T XYZWriter=T (release=T 2.4.3)=T pbc="F F F"
H       12.09058000      -1.89090000      18.10360000
O       11.56396000      -1.35466000      17.51820000
H       12.05916000      -1.33317000      16.68677000
H       13.87796000       0.74577000      18.66329000
O       13.03060000       0.74988000      19.13123000
H       12.51173000       0.17146000      18.55298000
