6
Properties=species:S:1:pos:R:3 frame=T 22=T |=T Written=T by=T MDAnalysis=T XYZWriter=T (release=T 2.4.3)=T pbc="F F F"
H       -5.89920000       2.67347000      11.93399000
O       -6.52111000       3.39723000      11.71148000
H       -7.34488000       2.90969000      11.53855000
H       -3.58790000       1.94514000      12.92787000
O       -4.14893000       2.27230000      12.22454000
H       -3.72546000       3.10435000      12.02424000
