6
Properties=species:S:1:pos:R:3 frame=T 33=T |=T Written=T by=T MDAnalysis=T XYZWriter=T (release=T 2.4.3)=T pbc="F F F"
H        4.05551000      16.21273000      12.72355000
O        3.21567000      16.37580000      13.22474000
H        3.08005000      15.56870000      13.71415000
H        1.75647000      16.81548000      14.50789000
O        1.14169000      16.84981000      15.24545000
H        1.42818000      17.64911000      15.68144000
