6
Properties=species:S:1:pos:R:3 frame=T 28=T |=T Written=T by=T MDAnalysis=T XYZWriter=T (release=T 2.4.3)=T pbc="F F F"
H       12.11573000      -5.50359000      -9.26557000
O       11.73219000      -5.18760000      -8.44646000
H       12.50342000      -4.80541000      -8.01014000
H       10.40590000      -2.30052000      -8.21553000
O       11.22994000      -2.57530000      -8.61671000
H       11.14989000      -3.52719000      -8.67660000
