6
Properties=species:S:1:pos:R:3 frame=T 17=T |=T Written=T by=T MDAnalysis=T XYZWriter=T (release=T 2.4.3)=T pbc="F F F"
H      -14.95672000      -2.77322000      14.55578000
O      -15.89881000      -2.88441000      14.34679000
H      -16.00492000      -3.83761000      14.17881000
H      -18.87098000      -4.29518000      14.92193000
O      -18.46471000      -3.43349000      14.77355000
H      -17.52517000      -3.54411000      15.07428000
