6
Properties=species:S:1:pos:R:3 frame=T 54=T |=T Written=T by=T MDAnalysis=T XYZWriter=T (release=T 2.4.3)=T pbc="F F F"
H       -1.63206000       2.04973000      -9.30508000
O       -1.99135000       2.90148000      -8.98513000
H       -2.22403000       2.72321000      -8.08908000
H       -2.72102000       2.58028000      -5.88005000
O       -1.99361000       2.26244000      -6.43631000
H       -2.12013000       1.28583000      -6.44573000
