6
Properties=species:S:1:pos:R:3 frame=T 5=T |=T Written=T by=T MDAnalysis=T XYZWriter=T (release=T 2.4.3)=T pbc="F F F"
H        2.90410000     -11.53306000      -5.86138000
O        2.48565000     -11.14920000      -5.07536000
H        3.00967000     -10.32585000      -5.02101000
H        0.87676000     -11.29591000      -4.97904000
O        0.02695000     -11.50399000      -5.37240000
H       -0.51863000     -11.76256000      -4.63893000
