6
Properties=species:S:1:pos:R:3 frame=T 41=T |=T Written=T by=T MDAnalysis=T XYZWriter=T (release=T 2.4.3)=T pbc="F F F"
H        6.13508000       0.48699000      -6.52188000
O        6.86431000       1.00590000      -6.15847000
H        7.15815000       0.41663000      -5.44561000
H        7.56643000       0.83788000      -3.47584000
O        7.74165000       0.00903000      -3.93662000
H        8.40657000      -0.30144000      -3.29829000
