6
Properties=species:S:1:pos:R:3 frame=T 51=T |=T Written=T by=T MDAnalysis=T XYZWriter=T (release=T 2.4.3)=T pbc="F F F"
H        5.34448000      -7.86982000      16.13610000
O        4.41317000      -7.77362000      15.95953000
H        4.32578000      -6.81204000      15.95113000
H        1.83639000      -7.63669000      13.91448000
O        1.66428000      -7.72395000      14.88161000
H        2.54507000      -7.70818000      15.27399000
