6
Properties=species:S:1:pos:R:3 frame=T 49=T |=T Written=T by=T MDAnalysis=T XYZWriter=T (release=T 2.4.3)=T pbc="F F F"
H       17.58343000       3.23333000     -14.85880000
O       17.05717000       2.56747000     -15.29742000
H       16.33098000       3.04881000     -15.65343000
H       18.27084000       3.70148000     -12.48337000
O       18.50943000       4.20185000     -13.29063000
H       19.39400000       3.92889000     -13.45796000
