6
Properties=species:S:1:pos:R:3 frame=T 11=T |=T Written=T by=T MDAnalysis=T XYZWriter=T (release=T 2.4.3)=T pbc="F F F"
H       16.46611000     -18.47665000     -11.48082000
O       15.64072000     -18.39187000     -11.93160000
H       15.17794000     -17.69414000     -11.50418000
H       18.77150000     -18.75931000     -11.42260000
O       18.33104000     -18.93400000     -10.58660000
H       18.50889000     -18.18888000     -10.04772000
