6
Properties=species:S:1:pos:R:3 frame=T 31=T |=T Written=T by=T MDAnalysis=T XYZWriter=T (release=T 2.4.3)=T pbc="F F F"
H      -10.78294000       8.46402000      10.45791000
O       -9.97203000       8.98521000      10.33235000
H       -9.59510000       8.57763000       9.52206000
H      -12.51588000       7.19134000      11.57460000
O      -12.38571000       7.75889000      10.81194000
H      -12.40471000       8.63087000      11.19738000
