6
Properties=species:S:1:pos:R:3 frame=T 36=T |=T Written=T by=T MDAnalysis=T XYZWriter=T (release=T 2.4.3)=T pbc="F F F"
H       -8.14504000       4.92848000     -12.08428000
O       -8.88887000       4.64824000     -12.61351000
H       -9.31510000       5.48292000     -12.86004000
H      -10.53161000       3.78951000     -13.52589000
O      -10.55150000       2.87010000     -13.80587000
H       -9.83808000       2.49654000     -13.28087000
