6
Properties=species:S:1:pos:R:3 frame=T 14=T |=T Written=T by=T MDAnalysis=T XYZWriter=T (release=T 2.4.3)=T pbc="F F F"
H      -16.61138000     -16.37099000       7.96262000
O      -15.77533000     -15.92205000       8.04881000
H      -15.24780000     -16.47051000       7.43597000
H      -18.74019000     -18.03279000       8.39751000
O      -18.41332000     -17.14602000       8.33161000
H      -18.76346000     -16.81922000       7.49064000
