6
Properties=species:S:1:pos:R:3 frame=T 33=T |=T Written=T by=T MDAnalysis=T XYZWriter=T (release=T 2.4.3)=T pbc="F F F"
H       -5.11619000       9.66767000      10.51221000
O       -5.59231000       8.90462000      10.13379000
H       -4.92698000       8.30484000       9.84259000
H       -3.86689000      10.15870000       7.25925000
O       -4.16811000      10.50943000       8.09342000
H       -5.05874000      10.12875000       8.19033000
