6
Properties=species:S:1:pos:R:3 frame=T 44=T |=T Written=T by=T MDAnalysis=T XYZWriter=T (release=T 2.4.3)=T pbc="F F F"
H        6.20210000     -13.96474000      -9.61964000
O        5.30676000     -13.87261000      -9.91425000
H        4.79282000     -14.21441000      -9.17271000
H        4.69891000     -12.68242000     -10.86517000
O        4.43840000     -12.24750000     -11.66601000
H        4.30301000     -12.99616000     -12.23104000
