6
Properties=species:S:1:pos:R:3 frame=T 36=T |=T Written=T by=T MDAnalysis=T XYZWriter=T (release=T 2.4.3)=T pbc="F F F"
H        6.84432000      -9.38473000      -6.39920000
O        6.53817000     -10.29725000      -6.56358000
H        5.58580000     -10.23645000      -6.75816000
H        5.03429000     -12.43219000      -8.86753000
O        5.96901000     -12.26039000      -8.70100000
H        5.96465000     -11.42099000      -8.23903000
