6
Properties=species:S:1:pos:R:3 frame=T 49=T |=T Written=T by=T MDAnalysis=T XYZWriter=T (release=T 2.4.3)=T pbc="F F F"
H       13.11646000     -15.91694000      10.23046000
O       13.58836000     -16.70561000       9.87066000
H       14.50548000     -16.61363000      10.17529000
H       13.60582000     -16.79896000       8.27466000
O       13.62336000     -16.62203000       7.32196000
H       12.72820000     -16.79048000       7.00209000
