6
Properties=species:S:1:pos:R:3 frame=T 28=T |=T Written=T by=T MDAnalysis=T XYZWriter=T (release=T 2.4.3)=T pbc="F F F"
H      -16.86227000       1.99018000      11.21605000
O      -16.35672000       2.80412000      11.04364000
H      -15.79762000       2.57197000      10.32796000
H      -15.78384000       0.79515000       8.66031000
O      -15.32528000       1.58904000       8.48414000
H      -14.38556000       1.32515000       8.45370000
