6
Properties=species:S:1:pos:R:3 frame=T 11=T |=T Written=T by=T MDAnalysis=T XYZWriter=T (release=T 2.4.3)=T pbc="F F F"
H        6.69667000      13.30832000     -15.91550000
O        6.99260000      14.23577000     -15.75216000
H        7.50615000      14.49749000     -16.51729000
H        5.37240000      15.15550000     -16.16821000
O        4.61503000      15.64003000     -16.52621000
H        4.25535000      15.03929000     -17.22025000
