6
Properties=species:S:1:pos:R:3 frame=T 9=T |=T Written=T by=T MDAnalysis=T XYZWriter=T (release=T 2.4.3)=T pbc="F F F"
H        9.79565000       9.14533000      -7.35699000
O       10.59196000       8.65662000      -7.63686000
H       10.40473000       8.36351000      -8.53348000
H        9.34353000       8.48744000     -10.90870000
O       10.17250000       8.06091000     -10.60098000
H        9.85331000       7.17773000     -10.36628000
