6
Properties=species:S:1:pos:R:3 frame=T 14=T |=T Written=T by=T MDAnalysis=T XYZWriter=T (release=T 2.4.3)=T pbc="F F F"
H       -9.67793000       0.01499000      -3.69944000
O      -10.14027000       0.72585000      -4.20716000
H      -10.72075000       0.18547000      -4.71937000
H       -8.28108000       0.64515000      -6.64374000
O       -8.54141000       1.55282000      -6.42098000
H       -8.98888000       1.41832000      -5.59704000
