6
Properties=species:S:1:pos:R:3 frame=T 51=T |=T Written=T by=T MDAnalysis=T XYZWriter=T (release=T 2.4.3)=T pbc="F F F"
H      -11.60324000       4.84451000     -11.01224000
O      -12.07169000       4.01529000     -10.86504000
H      -11.38507000       3.33326000     -10.72967000
H       -8.74940000       5.98038000     -10.71297000
O       -9.19503000       5.38372000     -11.33346000
H      -10.07513000       5.79566000     -11.34228000
