6
Properties=species:S:1:pos:R:3 frame=T 17=T |=T Written=T by=T MDAnalysis=T XYZWriter=T (release=T 2.4.3)=T pbc="F F F"
H      -13.58463000      -1.99703000     -10.89402000
O      -13.08550000      -1.15859000     -10.81178000
H      -13.63107000      -0.42733000     -11.14625000
H      -12.14053000       0.82501000      -8.84229000
O      -12.45815000      -0.04198000      -8.53501000
H      -12.66308000      -0.52824000      -9.34380000
