6
Properties=species:S:1:pos:R:3 frame=T 7=T |=T Written=T by=T MDAnalysis=T XYZWriter=T (release=T 2.4.3)=T pbc="F F F"
H       15.60435000       9.93537000       2.82303000
O       15.72015000      10.89072000       2.80818000
H       15.68969000      11.07162000       3.75324000
H       15.51678000      13.11061000       5.72083000
O       15.39865000      12.44200000       5.02276000
H       14.85798000      11.73741000       5.42132000
