6
Properties=species:S:1:pos:R:3 frame=T 44=T |=T Written=T by=T MDAnalysis=T XYZWriter=T (release=T 2.4.3)=T pbc="F F F"
H        6.92515000      -3.51716000     -18.93264000
O        7.73617000      -4.02505000     -18.80157000
H        7.36606000      -4.88377000     -18.53211000
H        7.47123000      -7.30038000     -18.10833000
O        7.23509000      -6.89239000     -18.97246000
H        8.00720000      -7.05361000     -19.53932000
