6
Properties=species:S:1:pos:R:3 frame=T 49=T |=T Written=T by=T MDAnalysis=T XYZWriter=T (release=T 2.4.3)=T pbc="F F F"
H      -11.92194000      -1.06249000       8.50059000
O      -11.28412000      -0.70033000       7.87550000
H      -10.95594000       0.06150000       8.37589000
H       -9.68393000      -2.87847000       6.95040000
O      -10.04048000      -2.50371000       6.14215000
H      -10.47175000      -1.69924000       6.45944000
