6
Properties=species:S:1:pos:R:3 frame=T 3=T |=T Written=T by=T MDAnalysis=T XYZWriter=T (release=T 2.4.3)=T pbc="F F F"
H      -10.85122000      -2.62470000     -14.24027000
O      -11.71093000      -3.00705000     -13.99809000
H      -11.60030000      -3.67300000     -13.28604000
H      -10.76324000      -4.36452000     -16.81510000
O      -11.37747000      -4.69035000     -16.11543000
H      -11.47459000      -3.89679000     -15.54968000
