6
Properties=species:S:1:pos:R:3 frame=T 36=T |=T Written=T by=T MDAnalysis=T XYZWriter=T (release=T 2.4.3)=T pbc="F F F"
H      -16.43825000      14.32587000      -2.31456000
O      -16.32249000      15.11526000      -2.87017000
H      -16.07997000      14.75142000      -3.74226000
H      -14.01137000      17.26564000      -4.24748000
O      -14.86799000      16.87411000      -4.41597000
H      -15.05123000      16.41094000      -3.59563000
