6
Properties=species:S:1:pos:R:3 frame=T 54=T |=T Written=T by=T MDAnalysis=T XYZWriter=T (release=T 2.4.3)=T pbc="F F F"
H        2.52358000       6.09810000       3.38392000
O        2.13234000       5.23972000       3.64254000
H        1.36845000       5.09729000       3.02370000
H        3.32689000       2.29532000       3.99523000
O        3.77106000       3.15010000       4.04390000
H        3.08237000       3.81529000       4.28750000
