6
Properties=species:S:1:pos:R:3 frame=T 47=T |=T Written=T by=T MDAnalysis=T XYZWriter=T (release=T 2.4.3)=T pbc="F F F"
H      -19.07437000      13.38112000      -7.60968000
O      -18.52744000      14.00177000      -7.12222000
H      -17.64988000      13.89130000      -7.54304000
H      -17.93334000      16.58628000      -5.41281000
O      -18.24582000      17.16512000      -6.13228000
H      -18.73196000      16.49598000      -6.68956000
