6
Properties=species:S:1:pos:R:3 frame=T 24=T |=T Written=T by=T MDAnalysis=T XYZWriter=T (release=T 2.4.3)=T pbc="F F F"
H        9.55370000     -15.11674000     -16.99055000
O        8.71785000     -14.76105000     -16.69919000
H        8.26736000     -14.49795000     -17.49759000
H       10.88213000     -16.12831000     -15.87369000
O       10.13786000     -16.45999000     -15.39346000
H        9.36859000     -16.00245000     -15.75112000
