6
Properties=species:S:1:pos:R:3 frame=T 47=T |=T Written=T by=T MDAnalysis=T XYZWriter=T (release=T 2.4.3)=T pbc="F F F"
H       -1.15876000     -13.92058000       7.73749000
O       -1.71239000     -14.12191000       6.97923000
H       -2.28901000     -14.82370000       7.34042000
H        0.29955000     -11.95003000       4.48492000
O        0.05219000     -12.10106000       5.40756000
H       -0.71846000     -12.69437000       5.45136000
