6
Properties=species:S:1:pos:R:3 frame=T 39=T |=T Written=T by=T MDAnalysis=T XYZWriter=T (release=T 2.4.3)=T pbc="F F F"
H      -13.89877000      -0.99066000      -6.99431000
O      -14.67270000      -1.52073000      -6.90402000
H      -14.92894000      -1.63237000      -7.83725000
H      -17.41390000       0.11677000      -7.88483000
O      -17.41364000      -0.73159000      -8.33554000
H      -17.15056000      -0.48642000      -9.25473000
