6
Properties=species:S:1:pos:R:3 frame=T 39=T |=T Written=T by=T MDAnalysis=T XYZWriter=T (release=T 2.4.3)=T pbc="F F F"
H       -5.21589000      -7.22832000      -2.99229000
O       -4.83763000      -7.47012000      -3.85360000
H       -4.78294000      -8.42406000      -3.73459000
H       -5.18124000     -11.02854000      -3.13746000
O       -5.76758000     -10.41804000      -3.57753000
H       -6.05075000      -9.79828000      -2.91833000
