6
Properties=species:S:1:pos:R:3 frame=T 29=T |=T Written=T by=T MDAnalysis=T XYZWriter=T (release=T 2.4.3)=T pbc="F F F"
H      -15.46061000      14.95529000       4.61757000
O      -15.12219000      15.87411000       4.57612000
H      -14.18861000      15.78287000       4.85968000
H      -15.72053000      12.57876000       6.13831000
O      -15.73828000      13.51885000       5.99754000
H      -14.78547000      13.66647000       5.99052000
