6
Properties=species:S:1:pos:R:3 frame=T 27=T |=T Written=T by=T MDAnalysis=T XYZWriter=T (release=T 2.4.3)=T pbc="F F F"
H       15.16981000     -14.07887000       0.68612000
O       14.95371000     -13.54897000      -0.09274000
H       13.99972000     -13.67591000      -0.20100000
H       14.21673000     -15.05786000       2.30452000
O       15.12327000     -15.17573000       1.97588000
H       15.66692000     -15.16654000       2.79085000
