6
Properties=species:S:1:pos:R:3 frame=T 52=T |=T Written=T by=T MDAnalysis=T XYZWriter=T (release=T 2.4.3)=T pbc="F F F"
H       15.00486000      11.04182000      -5.27689000
O       15.15998000      10.99633000      -4.33127000
H       14.33335000      11.39163000      -3.93028000
H       11.55015000      10.16587000      -5.73172000
O       12.44109000      10.46594000      -5.96657000
H       12.69337000      10.89625000      -5.12711000
