6
Properties=species:S:1:pos:R:3 frame=T 53=T |=T Written=T by=T MDAnalysis=T XYZWriter=T (release=T 2.4.3)=T pbc="F F F"
H      -10.42148000       5.76485000      13.57376000
O       -9.63727000       5.67829000      14.10258000
H       -9.90348000       5.84138000      15.01311000
H      -10.19105000       3.74856000      13.69488000
O       -9.93816000       2.83577000      13.87336000
H       -8.97835000       2.80949000      13.70807000
