6
Properties=species:S:1:pos:R:3 frame=T 20=T |=T Written=T by=T MDAnalysis=T XYZWriter=T (release=T 2.4.3)=T pbc="F F F"
H        6.72389000      -8.39927000     -10.43654000
O        7.07449000      -8.60162000     -11.29432000
H        7.79524000      -9.23660000     -11.08896000
H        5.42016000      -8.43041000     -11.86818000
O        4.58636000      -7.99899000     -11.71707000
H        4.01176000      -8.67045000     -11.34401000
