6
Properties=species:S:1:pos:R:3 frame=T 26=T |=T Written=T by=T MDAnalysis=T XYZWriter=T (release=T 2.4.3)=T pbc="F F F"
H      -10.91799000     -10.96380000     -14.10381000
O      -10.38185000     -10.34860000     -13.58277000
H       -9.97329000      -9.77103000     -14.23737000
H      -12.25233000      -8.11456000     -12.47026000
O      -12.26372000      -8.30441000     -13.42457000
H      -11.72885000      -9.09761000     -13.48944000
