6
Properties=species:S:1:pos:R:3 frame=T 28=T |=T Written=T by=T MDAnalysis=T XYZWriter=T (release=T 2.4.3)=T pbc="F F F"
H      -13.30718000     -10.00903000     -11.80449000
O      -12.98346000      -9.85196000     -10.92193000
H      -12.56803000     -10.72278000     -10.69681000
H      -16.13352000     -10.34895000     -10.93675000
O      -15.76530000     -10.25512000     -10.04076000
H      -14.84821000      -9.98398000     -10.18944000
