6
Properties=species:S:1:pos:R:3 frame=T 52=T |=T Written=T by=T MDAnalysis=T XYZWriter=T (release=T 2.4.3)=T pbc="F F F"
H       -1.54967000      11.05338000     -10.62631000
O       -1.69662000      11.66011000      -9.88810000
H       -1.18722000      12.42146000     -10.12908000
H       -1.19904000       8.85819000     -11.22902000
O       -0.76426000       9.67715000     -11.46916000
H       -0.01055000       9.66204000     -10.85030000
