6
Properties=species:S:1:pos:R:3 frame=T 33=T |=T Written=T by=T MDAnalysis=T XYZWriter=T (release=T 2.4.3)=T pbc="F F F"
H       14.14321000       7.43863000     -14.66718000
O       14.05396000       7.82310000     -15.51805000
H       13.10083000       7.99010000     -15.61662000
H       12.99727000       4.42940000     -16.07631000
O       12.34155000       5.12487000     -15.89378000
H       12.90434000       5.88482000     -16.05640000
