6
Properties=species:S:1:pos:R:3 frame=T 3=T |=T Written=T by=T MDAnalysis=T XYZWriter=T (release=T 2.4.3)=T pbc="F F F"
H       17.94953000      -3.42881000     -16.39882000
O       17.70915000      -4.09666000     -15.70043000
H       16.87675000      -4.48861000     -15.92992000
H       18.67455000      -5.97435000     -16.21790000
O       18.85289000      -6.90361000     -16.23574000
H       18.38130000      -7.20649000     -15.46327000
