6
Properties=species:S:1:pos:R:3 frame=T 37=T |=T Written=T by=T MDAnalysis=T XYZWriter=T (release=T 2.4.3)=T pbc="F F F"
H      -16.11234000      -3.89233000     -14.87397000
O      -15.51025000      -4.61988000     -14.92510000
H      -15.13925000      -4.66098000     -14.04701000
H      -14.97434000      -6.47808000     -15.16273000
O      -14.54681000      -7.28748000     -15.51389000
H      -14.78612000      -7.84886000     -14.76538000
