6
Properties=species:S:1:pos:R:3 frame=T 12=T |=T Written=T by=T MDAnalysis=T XYZWriter=T (release=T 2.4.3)=T pbc="F F F"
H      -14.35950000      -8.64117000      17.67463000
O      -14.40164000      -9.02179000      18.56141000
H      -13.58205000      -9.54989000      18.60907000
H      -16.58237000      -6.82855000      17.36183000
O      -15.89504000      -6.70927000      18.02726000
H      -15.64369000      -7.57048000      18.37448000
