6
Properties=species:S:1:pos:R:3 frame=T 41=T |=T Written=T by=T MDAnalysis=T XYZWriter=T (release=T 2.4.3)=T pbc="F F F"
H       -4.19166000       7.60556000      15.74838000
O       -4.71773000       7.74307000      16.54110000
H       -4.14825000       7.25914000      17.13999000
H       -3.64694000       7.35473000      13.06278000
O       -4.00225000       7.10009000      13.92085000
H       -4.90001000       6.76330000      13.71721000
