6
Properties=species:S:1:pos:R:3 frame=T 12=T |=T Written=T by=T MDAnalysis=T XYZWriter=T (release=T 2.4.3)=T pbc="F F F"
H        3.53984000     -15.22749000       8.39440000
O        2.86899000     -14.57592000       8.34090000
H        2.43939000     -14.72263000       7.49868000
H        3.94548000     -11.45275000       8.44507000
O        4.61138000     -12.11957000       8.25619000
H        4.07697000     -12.93659000       8.28807000
