6
Properties=species:S:1:pos:R:3 frame=T 13=T |=T Written=T by=T MDAnalysis=T XYZWriter=T (release=T 2.4.3)=T pbc="F F F"
H       11.39063000     -13.20780000      18.36317000
O       12.11334000     -13.73916000      17.98143000
H       12.60888000     -13.06446000      17.47376000
H       10.65963000     -10.04513000      17.78565000
O       10.75280000     -10.95237000      17.99775000
H       11.38681000     -10.95316000      18.71725000
