6
Properties=species:S:1:pos:R:3 frame=T 22=T |=T Written=T by=T MDAnalysis=T XYZWriter=T (release=T 2.4.3)=T pbc="F F F"
H      -11.41227000       9.87507000      -4.53439000
O      -11.33821000       9.01183000      -4.09192000
H      -12.17180000       8.95060000      -3.62506000
H      -10.17649000       7.62028000      -3.48791000
O       -9.45619000       7.27338000      -2.98457000
H       -9.14012000       7.98923000      -2.42519000
