6
Properties=species:S:1:pos:R:3 frame=T 28=T |=T Written=T by=T MDAnalysis=T XYZWriter=T (release=T 2.4.3)=T pbc="F F F"
H      -11.11667000      13.05272000       1.71684000
O      -11.04934000      13.17614000       2.64604000
H      -11.38913000      14.07194000       2.75015000
H      -11.86223000      13.79686000      -0.81003000
O      -11.89852000      13.54816000       0.13983000
H      -12.82411000      13.63682000       0.40641000
