6
Properties=species:S:1:pos:R:3 frame=T 35=T |=T Written=T by=T MDAnalysis=T XYZWriter=T (release=T 2.4.3)=T pbc="F F F"
H      -18.38871000     -16.29602000       1.73387000
O      -18.56283000     -15.85433000       2.59258000
H      -18.32745000     -16.52423000       3.23259000
H      -16.40738000     -17.72052000       3.86299000
O      -17.30697000     -17.97329000       4.12568000
H      -17.38426000     -18.90294000       3.85049000
