6
Properties=species:S:1:pos:R:3 frame=T 2=T |=T Written=T by=T MDAnalysis=T XYZWriter=T (release=T 2.4.3)=T pbc="F F F"
H      -16.89108000      -1.42120000       0.69071000
O      -17.62589000      -1.29782000       1.29231000
H      -18.00878000      -2.17174000       1.34219000
H      -18.34577000      -4.51092000       0.44977000
O      -18.64551000      -4.13993000       1.29587000
H      -17.95240000      -4.46195000       1.88977000
