6
Properties=species:S:1:pos:R:3 frame=T 16=T |=T Written=T by=T MDAnalysis=T XYZWriter=T (release=T 2.4.3)=T pbc="F F F"
H      -10.11096000       2.03215000      -2.97180000
O      -10.90459000       2.58231000      -2.91806000
H      -10.69085000       3.03104000      -2.06053000
H       -7.85869000       1.64912000      -2.35789000
O       -8.57324000       1.66668000      -1.70337000
H       -8.13645000       1.23642000      -0.93114000
