6
Properties=species:S:1:pos:R:3 frame=T 3=T |=T Written=T by=T MDAnalysis=T XYZWriter=T (release=T 2.4.3)=T pbc="F F F"
H       -7.56663000      -2.75712000      18.05001000
O       -7.61158000      -2.34112000      18.91635000
H       -6.80129000      -2.59500000      19.36830000
H       -8.28272000      -1.91774000      16.43137000
O       -8.10381000      -2.84964000      16.24425000
H       -8.80153000      -3.09717000      15.65424000
