6
Properties=species:S:1:pos:R:3 frame=T 48=T |=T Written=T by=T MDAnalysis=T XYZWriter=T (release=T 2.4.3)=T pbc="F F F"
H       -7.62087000     -12.54921000      13.83977000
O       -7.24545000     -13.42712000      13.89332000
H       -7.93664000     -14.01852000      13.51598000
H       -6.40784000     -16.06497000      11.99371000
O       -6.34003000     -15.13880000      11.72817000
H       -6.66189000     -14.67680000      12.52557000
