6
Properties=species:S:1:pos:R:3 frame=T 28=T |=T Written=T by=T MDAnalysis=T XYZWriter=T (release=T 2.4.3)=T pbc="F F F"
H       14.72955000       3.37578000       9.43461000
O       13.88019000       3.53220000       9.01944000
H       13.77968000       2.80043000       8.40976000
H       11.68773000       1.57625000       7.90144000
O       12.64021000       1.58574000       7.70611000
H       12.59810000       1.50768000       6.76206000
