6
Properties=species:S:1:pos:R:3 frame=T 39=T |=T Written=T by=T MDAnalysis=T XYZWriter=T (release=T 2.4.3)=T pbc="F F F"
H      -15.42748000      -0.44369000      -2.14818000
O      -15.59851000       0.46663000      -2.47012000
H      -15.62238000       0.37996000      -3.44008000
H      -15.19167000      -2.90760000      -1.73306000
O      -15.65720000      -2.13108000      -2.15098000
H      -16.33028000      -1.94886000      -1.49105000
