6
Properties=species:S:1:pos:R:3 frame=T 28=T |=T Written=T by=T MDAnalysis=T XYZWriter=T (release=T 2.4.3)=T pbc="F F F"
H       12.92768000      11.82212000      10.08306000
O       12.56428000      12.34492000       9.33050000
H       13.30129000      12.78934000       8.91276000
H       10.49220000      14.09848000       8.17143000
O       11.29384000      14.58954000       8.36920000
H       11.51880000      14.23839000       9.23727000
