6
Properties=species:S:1:pos:R:3 frame=T 11=T |=T Written=T by=T MDAnalysis=T XYZWriter=T (release=T 2.4.3)=T pbc="F F F"
H       -9.06382000      -2.22301000     -10.13847000
O       -9.63466000      -2.64926000     -10.78665000
H      -10.21148000      -1.93139000     -11.10819000
H       -7.35742000      -1.16749000      -8.47618000
O       -8.05869000      -1.58194000      -8.99873000
H       -8.80097000      -0.96874000      -8.76767000
