6
Properties=species:S:1:pos:R:3 frame=T 14=T |=T Written=T by=T MDAnalysis=T XYZWriter=T (release=T 2.4.3)=T pbc="F F F"
H        1.23330000      -8.71618000     -11.90950000
O        0.56785000      -9.40424000     -12.11871000
H        0.99155000      -9.84531000     -12.86061000
H       -0.82012000      -8.82526000     -12.98036000
O       -1.53609000      -8.49675000     -13.56657000
H       -1.42014000      -8.99422000     -14.40216000
