6
Properties=species:S:1:pos:R:3 frame=T 52=T |=T Written=T by=T MDAnalysis=T XYZWriter=T (release=T 2.4.3)=T pbc="F F F"
H      -14.53599000      -9.76140000      13.29961000
O      -15.31024000      -9.27581000      13.68020000
H      -15.31970000      -8.44234000      13.17182000
H      -12.12131000     -10.68344000      13.08913000
O      -12.96477000     -10.81740000      12.58412000
H      -12.82874000     -10.21945000      11.80087000
