6
Properties=species:S:1:pos:R:3 frame=T 19=T |=T Written=T by=T MDAnalysis=T XYZWriter=T (release=T 2.4.3)=T pbc="F F F"
H        6.12204000     -16.75985000       9.87998000
O        6.85486000     -16.14496000       9.78449000
H        6.79456000     -15.61348000      10.56058000
H        6.92562000     -14.01459000       7.15341000
O        7.33133000     -14.86097000       7.43954000
H        6.95555000     -14.95363000       8.33740000
