6
Properties=species:S:1:pos:R:3 frame=T 45=T |=T Written=T by=T MDAnalysis=T XYZWriter=T (release=T 2.4.3)=T pbc="F F F"
H      -17.75063000      11.12955000      -1.71152000
O      -17.80747000      10.68363000      -2.55273000
H      -18.64582000      11.02546000      -2.91812000
H      -17.30905000       8.48420000      -0.20533000
O      -18.05529000       8.95070000      -0.60779000
H      -17.71936000       9.16717000      -1.48823000
