6
Properties=species:S:1:pos:R:3 frame=T 4=T |=T Written=T by=T MDAnalysis=T XYZWriter=T (release=T 2.4.3)=T pbc="F F F"
H       10.97277000      17.07774000       3.11578000
O       11.37679000      16.17804000       3.18864000
H       12.26974000      16.36013000       2.84963000
H       10.23316000      17.02336000       1.32181000
O       10.58295000      17.53427000       0.59902000
H       10.61618000      16.85828000      -0.09863000
