6
Properties=species:S:1:pos:R:3 frame=T 28=T |=T Written=T by=T MDAnalysis=T XYZWriter=T (release=T 2.4.3)=T pbc="F F F"
H      -15.29566000      17.23517000      -4.43434000
O      -15.34053000      18.17804000      -4.22173000
H      -14.80379000      18.58315000      -4.93413000
H      -18.31100000      17.20069000      -3.69963000
O      -18.29664000      17.88505000      -4.36567000
H      -17.44789000      18.34215000      -4.20136000
