6
Properties=species:S:1:pos:R:3 frame=T 7=T |=T Written=T by=T MDAnalysis=T XYZWriter=T (release=T 2.4.3)=T pbc="F F F"
H      -16.27171000       5.06618000     -16.99169000
O      -16.32726000       5.89111000     -16.48939000
H      -16.13876000       6.62644000     -17.12309000
H      -17.57814000       7.18598000     -13.92862000
O      -18.01569000       6.51798000     -14.44709000
H      -17.28965000       6.08634000     -14.92905000
