6
Properties=species:S:1:pos:R:3 frame=T 20=T |=T Written=T by=T MDAnalysis=T XYZWriter=T (release=T 2.4.3)=T pbc="F F F"
H       -3.08592000      -9.01935000      16.73882000
O       -2.48112000      -9.23990000      17.48410000
H       -2.40640000     -10.19897000      17.48457000
H       -1.65152000     -12.43246000      18.81448000
O       -2.20778000     -12.15906000      18.09893000
H       -1.60782000     -12.09212000      17.33126000
