6
Properties=species:S:1:pos:R:3 frame=T 47=T |=T Written=T by=T MDAnalysis=T XYZWriter=T (release=T 2.4.3)=T pbc="F F F"
H       -2.02044000       4.78423000      13.91068000
O       -2.84659000       5.04833000      14.31643000
H       -3.26821000       4.21932000      14.60520000
H       -0.00991000       4.21339000      14.06555000
O       -0.50082000       4.38316000      13.25651000
H       -0.49351000       3.52430000      12.84101000
