6
Properties=species:S:1:pos:R:3 frame=T 25=T |=T Written=T by=T MDAnalysis=T XYZWriter=T (release=T 2.4.3)=T pbc="F F F"
H       14.36247000      19.01240000     -17.30868000
O       14.18134000      18.53579000     -16.48164000
H       13.72686000      19.18099000     -15.95891000
H       13.81699000      16.71758000     -15.87899000
O       13.94754000      16.26327000     -15.03895000
H       14.80594000      16.54315000     -14.77395000
