6
Properties=species:S:1:pos:R:3 frame=T 40=T |=T Written=T by=T MDAnalysis=T XYZWriter=T (release=T 2.4.3)=T pbc="F F F"
H        1.75471000       5.35262000       5.71358000
O        2.72527000       5.20694000       5.83305000
H        3.06818000       6.11466000       5.90418000
H        4.54499000       8.11341000       7.41778000
O        4.62937000       7.43267000       6.74853000
H        5.54637000       7.50155000       6.45190000
