6
Properties=species:S:1:pos:R:3 frame=T 45=T |=T Written=T by=T MDAnalysis=T XYZWriter=T (release=T 2.4.3)=T pbc="F F F"
H       -5.44631000     -11.48641000      -9.29047000
O       -6.12173000     -12.08221000      -8.87540000
H       -6.93590000     -11.61437000      -8.99525000
H       -7.58637000     -14.16513000     -10.83441000
O       -7.84382000     -13.24188000     -10.76400000
H       -7.09383000     -12.89645000     -10.23749000
