6
Properties=species:S:1:pos:R:3 frame=T 33=T |=T Written=T by=T MDAnalysis=T XYZWriter=T (release=T 2.4.3)=T pbc="F F F"
H      -16.14231000     -14.51668000      -7.15428000
O      -15.56774000     -15.00812000      -6.57975000
H      -14.86543000     -15.22927000      -7.20969000
H      -14.29152000     -16.38494000      -5.76599000
O      -13.31624000     -16.38497000      -5.81634000
H      -13.19264000     -17.29211000      -6.02858000
