6
Properties=species:S:1:pos:R:3 frame=T 47=T |=T Written=T by=T MDAnalysis=T XYZWriter=T (release=T 2.4.3)=T pbc="F F F"
H        5.54630000      13.72625000      -5.09466000
O        5.94442000      14.57990000      -5.17149000
H        5.57178000      15.04106000      -4.41908000
H        3.97540000      11.40420000      -5.13993000
O        4.32100000      12.18590000      -5.62000000
H        5.15952000      11.86267000      -5.99087000
