6
Properties=species:S:1:pos:R:3 frame=T 27=T |=T Written=T by=T MDAnalysis=T XYZWriter=T (release=T 2.4.3)=T pbc="F F F"
H       -8.34665000      -4.26606000      -3.42032000
O       -8.03889000      -4.70689000      -4.20403000
H       -8.53495000      -5.55655000      -4.13195000
H       -9.16031000      -2.24039000      -2.32775000
O       -8.86773000      -3.14885000      -2.13807000
H       -9.06210000      -3.25502000      -1.19212000
