6
Properties=species:S:1:pos:R:3 frame=T 14=T |=T Written=T by=T MDAnalysis=T XYZWriter=T (release=T 2.4.3)=T pbc="F F F"
H      -14.63996000     -11.78004000     -12.50519000
O      -14.72349000     -12.71432000     -12.24731000
H      -14.47886000     -13.24534000     -13.04012000
H      -12.48663000     -14.98612000     -13.46722000
O      -12.24635000     -14.69427000     -12.58252000
H      -13.08027000     -14.46776000     -12.15675000
