6
Properties=species:S:1:pos:R:3 frame=T 18=T |=T Written=T by=T MDAnalysis=T XYZWriter=T (release=T 2.4.3)=T pbc="F F F"
H       -5.79777000      13.48337000       3.63539000
O       -6.64596000      13.79906000       3.30887000
H       -6.83320000      13.21146000       2.55903000
H       -5.89608000      11.17069000       1.43546000
O       -6.60244000      11.57653000       1.96441000
H       -7.29755000      10.94883000       1.86626000
