6
Properties=species:S:1:pos:R:3 frame=T 6=T |=T Written=T by=T MDAnalysis=T XYZWriter=T (release=T 2.4.3)=T pbc="F F F"
H        1.30299000      15.23615000      17.06371000
O        1.67155000      15.99687000      16.59537000
H        1.04352000      16.70088000      16.84545000
H        2.27357000      17.20319000      15.61968000
O        2.76553000      17.96784000      15.27493000
H        3.60800000      17.54757000      14.97770000
