6
Properties=species:S:1:pos:R:3 frame=T 41=T |=T Written=T by=T MDAnalysis=T XYZWriter=T (release=T 2.4.3)=T pbc="F F F"
H        4.71056000      15.40460000       8.65450000
O        4.90887000      15.14967000       9.54584000
H        5.46002000      14.36074000       9.43752000
H        3.96861000      13.88831000      10.56415000
O        4.25702000      13.03388000      10.90250000
H        3.39279000      12.60298000      11.12498000
