6
Properties=species:S:1:pos:R:3 frame=T 5=T |=T Written=T by=T MDAnalysis=T XYZWriter=T (release=T 2.4.3)=T pbc="F F F"
H        8.72637000      16.52866000       2.62008000
O        9.63317000      16.69928000       2.87554000
H        9.78700000      16.07551000       3.58927000
H       11.43258000      19.26770000       3.94556000
O       10.85942000      18.53028000       4.19150000
H       10.46414000      18.19354000       3.34218000
