6
Properties=species:S:1:pos:R:3 frame=T 50=T |=T Written=T by=T MDAnalysis=T XYZWriter=T (release=T 2.4.3)=T pbc="F F F"
H      -17.43890000      14.46325000       1.33584000
O      -18.24091000      13.95477000       1.14491000
H      -18.62007000      13.76629000       2.03124000
H      -16.35111000      16.22399000       2.43513000
O      -16.00309000      15.59639000       1.75972000
H      -15.63125000      14.91275000       2.32391000
