6
Properties=species:S:1:pos:R:3 frame=T 15=T |=T Written=T by=T MDAnalysis=T XYZWriter=T (release=T 2.4.3)=T pbc="F F F"
H       12.99126000      -4.40011000      -6.33290000
O       13.37744000      -4.50836000      -5.42693000
H       13.68358000      -3.60288000      -5.20272000
H       13.44171000      -2.14149000      -3.76981000
O       14.33329000      -2.49144000      -3.99178000
H       14.55759000      -3.15421000      -3.31044000
