6
Properties=species:S:1:pos:R:3 frame=T 40=T |=T Written=T by=T MDAnalysis=T XYZWriter=T (release=T 2.4.3)=T pbc="F F F"
H       11.23489000      15.48965000     -17.75457000
O       11.19416000      16.15372000     -18.43579000
H       12.05356000      16.59381000     -18.33301000
H       11.18761000      18.06174000     -15.32256000
O       10.49463000      17.93602000     -15.98517000
H       10.67227000      17.10250000     -16.41873000
