6
Properties=species:S:1:pos:R:3 frame=T 43=T |=T Written=T by=T MDAnalysis=T XYZWriter=T (release=T 2.4.3)=T pbc="F F F"
H        9.62808000      -2.17983000      -3.88520000
O        9.95205000      -1.43271000      -3.32416000
H       10.88765000      -1.35999000      -3.62112000
H        7.54798000       0.85670000      -3.91252000
O        7.57570000      -0.11222000      -4.00464000
H        8.38184000      -0.29143000      -3.49659000
