6
Properties=species:S:1:pos:R:3 frame=T 24=T |=T Written=T by=T MDAnalysis=T XYZWriter=T (release=T 2.4.3)=T pbc="F F F"
H       -7.96298000      13.41836000      -6.48144000
O       -7.77505000      12.86927000      -7.26605000
H       -8.04279000      11.98067000      -7.10889000
H       -5.53534000      11.00460000      -8.10177000
O       -5.31362000      11.65727000      -7.41722000
H       -5.97387000      12.35140000      -7.45373000
