6
Properties=species:S:1:pos:R:3 frame=T 11=T |=T Written=T by=T MDAnalysis=T XYZWriter=T (release=T 2.4.3)=T pbc="F F F"
H        5.79755000      -1.19054000      16.19399000
O        6.52945000      -1.69283000      15.83410000
H        7.28459000      -1.11369000      15.92156000
H        7.45868000      -2.57272000      18.75960000
O        7.33136000      -3.24672000      18.08921000
H        6.94680000      -2.73517000      17.36792000
