6
Properties=species:S:1:pos:R:3 frame=T 4=T |=T Written=T by=T MDAnalysis=T XYZWriter=T (release=T 2.4.3)=T pbc="F F F"
H        9.46462000      15.57197000      11.59934000
O        8.70950000      15.55585000      11.04573000
H        8.77295000      16.32623000      10.46318000
H        8.22358000      13.43237000       8.69968000
O        7.82390000      13.30657000       9.58400000
H        8.50688000      13.79272000      10.11787000
