6
Properties=species:S:1:pos:R:3 frame=T 26=T |=T Written=T by=T MDAnalysis=T XYZWriter=T (release=T 2.4.3)=T pbc="F F F"
H       16.12791000      13.85325000     -12.87920000
O       16.86502000      14.17000000     -13.39510000
H       17.22430000      13.34030000     -13.76138000
H       18.77157000      11.89638000     -14.74031000
O       17.85256000      12.05515000     -14.95533000
H       17.40273000      11.51376000     -14.29321000
