6
Properties=species:S:1:pos:R:3 frame=T 40=T |=T Written=T by=T MDAnalysis=T XYZWriter=T (release=T 2.4.3)=T pbc="F F F"
H       19.14931000       8.56379000       1.08276000
O       18.25465000       8.67045000       1.40088000
H       18.34099000       8.81770000       2.34966000
H       18.58020000      11.91651000       1.19502000
O       17.75796000      11.37976000       1.19534000
H       18.09908000      10.47187000       1.21930000
