6
Properties=species:S:1:pos:R:3 frame=T 22=T |=T Written=T by=T MDAnalysis=T XYZWriter=T (release=T 2.4.3)=T pbc="F F F"
H       -0.40280000      -1.22331000      11.76145000
O       -1.31779000      -0.90921000      11.62832000
H       -1.54966000      -0.48726000      12.45288000
H       -1.33348000       1.12189000      13.71774000
O       -2.13863000       0.62717000      13.58434000
H       -2.36307000       0.21191000      14.40342000
