6
Properties=species:S:1:pos:R:3 frame=T 8=T |=T Written=T by=T MDAnalysis=T XYZWriter=T (release=T 2.4.3)=T pbc="F F F"
H       -7.85095000       2.69187000     -11.38418000
O       -7.70918000       3.59077000     -11.04724000
H       -8.07495000       4.17024000     -11.72034000
H       -9.66317000       1.32468000      -8.89714000
O       -9.66021000       1.86770000      -9.70345000
H       -8.80513000       2.27299000      -9.66081000
