6
Properties=species:S:1:pos:R:3 frame=T 17=T |=T Written=T by=T MDAnalysis=T XYZWriter=T (release=T 2.4.3)=T pbc="F F F"
H       -6.59956000       5.94307000      13.88853000
O       -5.87898000       5.79462000      14.52847000
H       -5.92862000       6.62479000      15.01695000
H       -6.62490000       8.67512000      16.56081000
O       -6.29693000       8.11421000      15.81581000
H       -6.93647000       8.30432000      15.10987000
