6
Properties=species:S:1:pos:R:3 frame=T 24=T |=T Written=T by=T MDAnalysis=T XYZWriter=T (release=T 2.4.3)=T pbc="F F F"
H        4.22799000     -17.03205000       9.63200000
O        3.84401000     -16.84625000       8.76840000
H        3.23266000     -17.57654000       8.63766000
H        3.87580000     -15.90599000      11.66252000
O        4.69482000     -15.94298000      11.17627000
H        5.32754000     -16.14803000      11.89081000
