6
Properties=species:S:1:pos:R:3 frame=T 35=T |=T Written=T by=T MDAnalysis=T XYZWriter=T (release=T 2.4.3)=T pbc="F F F"
H        2.29297000     -10.66477000       3.94181000
O        1.98265000     -10.25287000       3.10935000
H        2.64660000      -9.56573000       2.93422000
H        4.79090000      -8.28450000       2.80721000
O        4.21764000      -8.84253000       2.25596000
H        4.55618000      -9.75437000       2.36000000
