6
Properties=species:S:1:pos:R:3 frame=T 29=T |=T Written=T by=T MDAnalysis=T XYZWriter=T (release=T 2.4.3)=T pbc="F F F"
H       17.21533000      11.82814000      16.57880000
O       16.58352000      11.17650000      16.92097000
H       16.46554000      10.53873000      16.19538000
H       16.56345000       8.94701000      14.93782000
O       16.65627000       8.37880000      15.71537000
H       15.79392000       7.97254000      15.81338000
