6
Properties=species:S:1:pos:R:3 frame=T 49=T |=T Written=T by=T MDAnalysis=T XYZWriter=T (release=T 2.4.3)=T pbc="F F F"
H      -18.41983000       8.98045000      13.12886000
O      -19.21148000       9.04511000      12.53917000
H      -19.56461000       9.93470000      12.76208000
H      -16.83783000       9.21016000      14.73775000
O      -17.12809000       9.88396000      14.10326000
H      -16.37915000      10.17614000      13.57624000
