6
Properties=species:S:1:pos:R:3 frame=T 49=T |=T Written=T by=T MDAnalysis=T XYZWriter=T (release=T 2.4.3)=T pbc="F F F"
H       17.71176000      10.12727000      -0.94976000
O       18.36592000       9.61136000      -1.41218000
H       18.42155000      10.07892000      -2.27938000
H       17.12617000       8.19988000      -2.38582000
O       17.03169000       7.26742000      -2.56522000
H       17.48855000       6.87127000      -1.79455000
