6
Properties=species:S:1:pos:R:3 frame=T 22=T |=T Written=T by=T MDAnalysis=T XYZWriter=T (release=T 2.4.3)=T pbc="F F F"
H       -1.08752000       0.36642000      -0.78674000
O       -0.15749000       0.39782000      -1.08232000
H       -0.31504000       0.87248000      -1.91737000
H       -3.23214000      -0.13285000      -0.65897000
O       -3.07445000       0.80233000      -0.54996000
H       -3.42735000       1.14643000      -1.35180000
