6
Properties=species:S:1:pos:R:3 frame=T 6=T |=T Written=T by=T MDAnalysis=T XYZWriter=T (release=T 2.4.3)=T pbc="F F F"
H        5.53775000      -5.28939000       5.22311000
O        5.03629000      -5.96013000       4.70124000
H        4.86486000      -6.60997000       5.38753000
H        5.32282000      -6.84226000       2.94150000
O        5.48732000      -7.55623000       2.32808000
H        4.99981000      -8.29961000       2.72186000
