6
Properties=species:S:1:pos:R:3 frame=T 36=T |=T Written=T by=T MDAnalysis=T XYZWriter=T (release=T 2.4.3)=T pbc="F F F"
H       -7.59703000     -13.51840000      -3.25250000
O       -7.65852000     -12.62230000      -3.54426000
H       -6.79072000     -12.33256000      -3.22873000
H       -9.00171000     -11.47597000      -2.64858000
O       -9.30756000     -10.59038000      -2.44205000
H       -9.61597000     -10.71808000      -1.53238000
