6
Properties=species:S:1:pos:R:3 frame=T 21=T |=T Written=T by=T MDAnalysis=T XYZWriter=T (release=T 2.4.3)=T pbc="F F F"
H       10.31980000       8.33893000       9.96807000
O       10.88686000       7.61540000       9.64446000
H       11.65267000       8.12546000       9.34996000
H        9.81388000       6.48247000       8.75214000
O        9.06946000       6.31182000       8.18455000
H        8.99883000       5.35642000       8.16243000
