6
Properties=species:S:1:pos:R:3 frame=T 12=T |=T Written=T by=T MDAnalysis=T XYZWriter=T (release=T 2.4.3)=T pbc="F F F"
H      -16.71314000     -13.97157000      -1.96223000
O      -16.42505000     -13.96916000      -2.86854000
H      -16.96407000     -14.71033000      -3.21221000
H      -17.65468000     -13.50078000       0.11787000
O      -17.70087000     -14.07950000      -0.66438000
H      -18.57543000     -14.46657000      -0.62911000
