6
Properties=species:S:1:pos:R:3 frame=T 29=T |=T Written=T by=T MDAnalysis=T XYZWriter=T (release=T 2.4.3)=T pbc="F F F"
H      -18.62813000     -10.09326000      -1.44233000
O      -18.21550000     -10.20318000      -2.30843000
H      -18.37040000      -9.39592000      -2.81584000
H      -15.10990000     -10.03954000      -2.89855000
O      -15.72820000      -9.36904000      -2.52934000
H      -16.54835000      -9.89142000      -2.47055000
