6
Properties=species:S:1:pos:R:3 frame=T 12=T |=T Written=T by=T MDAnalysis=T XYZWriter=T (release=T 2.4.3)=T pbc="F F F"
H       11.44219000      10.82758000     -10.39712000
O       11.80441000      11.70523000     -10.30319000
H       11.59543000      11.95734000      -9.38775000
H       13.39347000      11.13309000     -10.36929000
O       14.28728000      10.87897000     -10.65444000
H       14.67089000      10.35968000      -9.94481000
