6
Properties=species:S:1:pos:R:3 frame=T 0=T |=T Written=T by=T MDAnalysis=T XYZWriter=T (release=T 2.4.3)=T pbc="F F F"
H      -10.91357000       9.73583000     -14.88353000
O      -11.12299000       9.49808000     -13.97322000
H      -10.50973000       8.75593000     -13.84027000
H      -10.84257000      11.03292000     -13.00338000
O      -10.79212000      12.02333000     -12.96994000
H      -11.48253000      12.24028000     -13.59523000
