6
Properties=species:S:1:pos:R:3 frame=T 38=T |=T Written=T by=T MDAnalysis=T XYZWriter=T (release=T 2.4.3)=T pbc="F F F"
H       -5.09253000      -5.83503000      -9.71164000
O       -4.98298000      -6.78272000      -9.63067000
H       -4.75179000      -7.05024000     -10.54222000
H       -6.93717000      -5.56259000      -9.71109000
O       -7.78778000      -5.35395000     -10.14376000
H       -8.40045000      -5.91666000      -9.65995000
