6
Properties=species:S:1:pos:R:3 frame=T 50=T |=T Written=T by=T MDAnalysis=T XYZWriter=T (release=T 2.4.3)=T pbc="F F F"
H      -15.99428000       6.36656000       2.44315000
O      -16.69273000       6.81475000       2.89708000
H      -17.13716000       7.34703000       2.21699000
H      -16.85093000       8.09726000       3.98041000
O      -16.82329000       9.04625000       4.25478000
H      -17.71518000       9.23654000       4.54733000
