6
Properties=species:S:1:pos:R:3 frame=T 40=T |=T Written=T by=T MDAnalysis=T XYZWriter=T (release=T 2.4.3)=T pbc="F F F"
H       12.01022000       1.79656000     -11.26620000
O       11.96762000       2.34425000     -12.05418000
H       11.00605000       2.37100000     -12.26029000
H       12.99740000       4.74788000     -10.31948000
O       12.07710000       4.43769000     -10.27732000
H       12.07338000       3.84171000     -11.07184000
