6
Properties=species:S:1:pos:R:3 frame=T 11=T |=T Written=T by=T MDAnalysis=T XYZWriter=T (release=T 2.4.3)=T pbc="F F F"
H        0.21376000      12.17613000      -0.56794000
O        0.14656000      11.60845000      -1.37454000
H       -0.74976000      11.79061000      -1.69110000
H       -3.00372000      11.50315000      -1.91531000
O       -2.25496000      11.89610000      -2.36447000
H       -2.04178000      11.27002000      -3.06430000
