6
Properties=species:S:1:pos:R:3 frame=T 24=T |=T Written=T by=T MDAnalysis=T XYZWriter=T (release=T 2.4.3)=T pbc="F F F"
H      -11.31764000     -13.51943000       4.18683000
O      -11.46631000     -14.33687000       4.67332000
H      -12.24494000     -14.66942000       4.18287000
H      -14.05508000     -15.36754000       6.72029000
O      -13.10071000     -15.39930000       6.68825000
H      -12.92303000     -14.88966000       5.90658000
