6
Properties=species:S:1:pos:R:3 frame=T 36=T |=T Written=T by=T MDAnalysis=T XYZWriter=T (release=T 2.4.3)=T pbc="F F F"
H       -6.10910000       9.21297000      -4.86940000
O       -5.65346000       9.94520000      -5.31606000
H       -5.43556000       9.58244000      -6.18162000
H       -3.91393000       9.01996000      -7.98949000
O       -4.55934000       9.68395000      -7.91069000
H       -4.08926000      10.48973000      -7.99894000
