6
Properties=species:S:1:pos:R:3 frame=T 11=T |=T Written=T by=T MDAnalysis=T XYZWriter=T (release=T 2.4.3)=T pbc="F F F"
H        3.61282000      13.98086000      12.32979000
O        3.44054000      14.30794000      11.42719000
H        2.48234000      14.23731000      11.36792000
H        4.35958000      12.44431000      11.80649000
O        4.96350000      11.67909000      11.74507000
H        4.59814000      11.09941000      12.41342000
