6
Properties=species:S:1:pos:R:3 frame=T 32=T |=T Written=T by=T MDAnalysis=T XYZWriter=T (release=T 2.4.3)=T pbc="F F F"
H       -0.59745000       3.87147000       0.87830000
O       -1.12726000       3.49034000       0.15781000
H       -1.98311000       3.97657000       0.29591000
H       -0.37092000       4.58041000       2.41240000
O        0.28681000       4.96941000       1.82111000
H       -0.12958000       5.74692000       1.43452000
