6
Properties=species:S:1:pos:R:3 frame=T 7=T |=T Written=T by=T MDAnalysis=T XYZWriter=T (release=T 2.4.3)=T pbc="F F F"
H      -10.08043000      -9.67459000       7.63584000
O      -10.48297000     -10.42155000       8.13118000
H      -10.19156000     -10.28197000       9.03851000
H       -7.91752000      -8.42885000       8.31315000
O       -8.14456000      -9.02250000       7.60687000
H       -8.43137000      -9.80991000       8.08642000
