6
Properties=species:S:1:pos:R:3 frame=T 37=T |=T Written=T by=T MDAnalysis=T XYZWriter=T (release=T 2.4.3)=T pbc="F F F"
H       14.84026000     -17.68304000       6.36354000
O       14.85451000     -18.65342000       6.40529000
H       15.78319000     -18.91135000       6.34723000
H       14.99056000     -16.05452000       6.61777000
O       15.85726000     -16.20719000       6.18239000
H       16.43327000     -16.37542000       6.95462000
