6
Properties=species:S:1:pos:R:3 frame=T 49=T |=T Written=T by=T MDAnalysis=T XYZWriter=T (release=T 2.4.3)=T pbc="F F F"
H       -2.45224000      -0.62963000      17.31678000
O       -1.96405000      -0.54081000      18.15485000
H       -2.39659000      -1.22068000      18.66826000
H       -2.07723000      -4.67857000      16.67933000
O       -1.93856000      -3.76433000      16.44090000
H       -2.06384000      -3.37598000      17.32062000
