6
Properties=species:S:1:pos:R:3 frame=T 18=T |=T Written=T by=T MDAnalysis=T XYZWriter=T (release=T 2.4.3)=T pbc="F F F"
H        3.19942000      10.32746000     -12.63540000
O        3.23586000      11.24893000     -12.36482000
H        3.38033000      11.20105000     -11.39902000
H        3.33697000       8.52318000     -13.26893000
O        3.78668000       8.67273000     -12.42835000
H        3.07451000       8.80128000     -11.80811000
