6
Properties=species:S:1:pos:R:3 frame=T 42=T |=T Written=T by=T MDAnalysis=T XYZWriter=T (release=T 2.4.3)=T pbc="F F F"
H        7.21047000      18.58971000      -2.87497000
O        6.71158000      18.05832000      -2.24698000
H        6.88800000      17.15393000      -2.53780000
H        6.05817000      17.86375000      -4.18773000
O        5.37366000      18.29058000      -4.72123000
H        5.35485000      19.20450000      -4.35604000
