6
Properties=species:S:1:pos:R:3 frame=T 53=T |=T Written=T by=T MDAnalysis=T XYZWriter=T (release=T 2.4.3)=T pbc="F F F"
H       10.39652000      -5.76757000       8.19822000
O        9.91762000      -5.50606000       8.99415000
H        9.01836000      -5.34072000       8.73688000
H       12.42100000      -7.38481000       9.93587000
O       12.32347000      -6.52319000       9.50250000
H       11.42195000      -6.26151000       9.69825000
