6
Properties=species:S:1:pos:R:3 frame=T 28=T |=T Written=T by=T MDAnalysis=T XYZWriter=T (release=T 2.4.3)=T pbc="F F F"
H       -9.21854000      -6.54151000      17.45268000
O      -10.12672000      -6.49563000      17.12622000
H      -10.07770000      -5.86663000      16.37610000
H      -12.11893000      -8.89894000      17.61919000
O      -12.03987000      -8.10192000      18.11926000
H      -11.35289000      -7.66925000      17.62649000
