6
Properties=species:S:1:pos:R:3 frame=T 40=T |=T Written=T by=T MDAnalysis=T XYZWriter=T (release=T 2.4.3)=T pbc="F F F"
H       -6.98476000     -12.84571000      17.30198000
O       -7.68477000     -12.90326000      16.64652000
H       -8.45567000     -12.54701000      17.12455000
H       -9.54664000     -11.06966000      17.98680000
O       -9.75149000     -12.00361000      18.05517000
H       -9.82948000     -12.08788000      19.02760000
