6
Properties=species:S:1:pos:R:3 frame=T 33=T |=T Written=T by=T MDAnalysis=T XYZWriter=T (release=T 2.4.3)=T pbc="F F F"
H      -11.52873000      -5.03089000     -15.22856000
O      -11.40950000      -5.97688000     -15.33097000
H      -10.47709000      -6.10671000     -15.15142000
H      -13.14167000      -7.86054000     -13.38479000
O      -13.33827000      -6.92906000     -13.27031000
H      -12.61257000      -6.55293000     -13.77898000
