6
Properties=species:S:1:pos:R:3 frame=T 43=T |=T Written=T by=T MDAnalysis=T XYZWriter=T (release=T 2.4.3)=T pbc="F F F"
H      -18.90136000      -4.71473000      -5.50980000
O      -18.59221000      -4.83407000      -4.61618000
H      -19.17159000      -4.25625000      -4.08073000
H      -18.94590000      -6.42680000      -3.74383000
O      -18.82746000      -7.01127000      -2.99539000
H      -18.65742000      -6.39130000      -2.27533000
