6
Properties=species:S:1:pos:R:3 frame=T 40=T |=T Written=T by=T MDAnalysis=T XYZWriter=T (release=T 2.4.3)=T pbc="F F F"
H       16.41549000      -2.54243000     -10.09403000
O       17.21362000      -1.97476000     -10.10511000
H       17.98586000      -2.60140000     -10.01423000
H       16.72287000      -0.49698000      -7.51876000
O       16.25691000      -0.31361000      -8.33144000
H       16.58613000      -1.00921000      -8.94028000
