6
Properties=species:S:1:pos:R:3 frame=T 39=T |=T Written=T by=T MDAnalysis=T XYZWriter=T (release=T 2.4.3)=T pbc="F F F"
H      -12.94349000      -7.52022000      13.56178000
O      -12.66473000      -7.85268000      14.42113000
H      -12.30555000      -8.73540000      14.21831000
H      -14.49444000      -6.50593000      11.82865000
O      -13.79263000      -7.13207000      11.55014000
H      -12.99807000      -6.59657000      11.64832000
