6
Properties=species:S:1:pos:R:3 frame=T 30=T |=T Written=T by=T MDAnalysis=T XYZWriter=T (release=T 2.4.3)=T pbc="F F F"
H       16.69837000      -2.63077000      -9.99746000
O       16.92938000      -2.06597000     -10.70493000
H       16.10434000      -2.05167000     -11.20944000
H       16.65488000       1.23211000      -9.98593000
O       16.82843000       0.60335000      -9.28203000
H       16.58368000      -0.22163000      -9.68532000
