6
Properties=species:S:1:pos:R:3 frame=T 1=T |=T Written=T by=T MDAnalysis=T XYZWriter=T (release=T 2.4.3)=T pbc="F F F"
H      -16.38525000     -14.63690000     -13.11839000
O      -15.83856000     -14.71758000     -13.91242000
H      -16.48242000     -15.10956000     -14.57649000
H      -18.31221000     -16.19746000     -12.14717000
O      -17.67529000     -15.49671000     -11.97623000
H      -17.48277000     -15.72540000     -11.06329000
