6
Properties=species:S:1:pos:R:3 frame=T 33=T |=T Written=T by=T MDAnalysis=T XYZWriter=T (release=T 2.4.3)=T pbc="F F F"
H       11.53948000       5.31908000     -14.17214000
O       10.88178000       5.55171000     -13.51898000
H       10.74634000       4.70731000     -13.10069000
H       12.99727000       4.42940000     -16.07631000
O       12.34155000       5.12487000     -15.89378000
H       12.90434000       5.88482000     -16.05640000
