6
Properties=species:S:1:pos:R:3 frame=T 2=T |=T Written=T by=T MDAnalysis=T XYZWriter=T (release=T 2.4.3)=T pbc="F F F"
H      -17.89015000      14.94569000      -0.11058000
O      -17.12843000      15.39330000       0.28921000
H      -16.72507000      14.71241000       0.83817000
H      -17.68955000      16.78487000      -1.98050000
O      -16.89658000      17.26443000      -1.69660000
H      -16.57095000      16.71985000      -0.97006000
