6
Properties=species:S:1:pos:R:3 frame=T 17=T |=T Written=T by=T MDAnalysis=T XYZWriter=T (release=T 2.4.3)=T pbc="F F F"
H       -5.53159000      -3.04239000       0.55501000
O       -5.10405000      -3.73512000       1.04251000
H       -4.18586000      -3.43805000       0.98610000
H       -1.72604000      -4.13701000      -0.56543000
O       -2.37372000      -3.56734000      -0.13322000
H       -3.22674000      -3.83325000      -0.53148000
