6
Properties=species:S:1:pos:R:3 frame=T 41=T |=T Written=T by=T MDAnalysis=T XYZWriter=T (release=T 2.4.3)=T pbc="F F F"
H        3.01530000     -10.89258000     -14.14077000
O        3.04683000      -9.97993000     -13.89842000
H        2.80870000      -9.52257000     -14.71904000
H        4.02640000     -13.24173000     -13.65543000
O        3.67952000     -12.74816000     -14.39312000
H        4.35830000     -12.05984000     -14.48353000
