6
Properties=species:S:1:pos:R:3 frame=T 27=T |=T Written=T by=T MDAnalysis=T XYZWriter=T (release=T 2.4.3)=T pbc="F F F"
H       14.98162000     -17.79464000      -4.51960000
O       15.93145000     -17.67298000      -4.49566000
H       16.05068000     -16.73559000      -4.31859000
H       13.69127000     -17.98114000      -2.66515000
O       13.17549000     -17.69239000      -3.43824000
H       12.92537000     -18.53131000      -3.86678000
