6
Properties=species:S:1:pos:R:3 frame=T 18=T |=T Written=T by=T MDAnalysis=T XYZWriter=T (release=T 2.4.3)=T pbc="F F F"
H      -10.55794000      -6.49623000      -8.92615000
O       -9.95830000      -7.22081000      -9.15483000
H      -10.52820000      -7.97961000      -9.12871000
H      -11.24601000      -9.89646000      -7.88898000
O      -11.25142000      -9.55569000      -8.82341000
H      -11.77897000     -10.25617000      -9.23156000
