6
Properties=species:S:1:pos:R:3 frame=T 53=T |=T Written=T by=T MDAnalysis=T XYZWriter=T (release=T 2.4.3)=T pbc="F F F"
H       11.76905000       5.42465000      13.77062000
O       11.32450000       4.63160000      13.47299000
H       11.89884000       4.24826000      12.79960000
H       11.26032000       4.37176000      16.83268000
O       10.93662000       3.67399000      16.25037000
H       10.88002000       4.10075000      15.36547000
