6
Properties=species:S:1:pos:R:3 frame=T 26=T |=T Written=T by=T MDAnalysis=T XYZWriter=T (release=T 2.4.3)=T pbc="F F F"
H       13.74623000     -10.80074000      -7.13542000
O       13.47011000     -10.54295000      -8.02158000
H       12.64696000     -10.00689000      -7.87728000
H       14.25823000      -7.24047000      -6.93585000
O       13.98168000      -8.09579000      -6.56725000
H       14.25332000      -8.77817000      -7.25063000
