6
Properties=species:S:1:pos:R:3 frame=T 29=T |=T Written=T by=T MDAnalysis=T XYZWriter=T (release=T 2.4.3)=T pbc="F F F"
H       -1.89759000       6.89662000       4.35508000
O       -2.62279000       6.89993000       4.98383000
H       -3.06764000       6.08090000       4.73283000
H       -1.88487000       5.59066000       6.51007000
O       -1.20758000       5.38371000       7.19106000
H       -1.66616000       4.76886000       7.74728000
