6
Properties=species:S:1:pos:R:3 frame=T 11=T |=T Written=T by=T MDAnalysis=T XYZWriter=T (release=T 2.4.3)=T pbc="F F F"
H        0.03568000     -12.13628000      -7.81782000
O       -0.05526000     -11.80091000      -8.72646000
H       -0.37502000     -12.48137000      -9.30790000
H       -1.70272000     -11.06110000      -8.18154000
O       -2.35085000     -10.43354000      -7.83636000
H       -2.43972000     -10.68342000      -6.90573000
