6
Properties=species:S:1:pos:R:3 frame=T 46=T |=T Written=T by=T MDAnalysis=T XYZWriter=T (release=T 2.4.3)=T pbc="F F F"
H      -15.74160000       0.95759000      -6.48987000
O      -15.61478000       1.53246000      -7.24596000
H      -16.48846000       1.90653000      -7.38369000
H      -15.14659000       3.24773000      -6.95156000
O      -15.18524000       4.16944000      -7.24390000
H      -15.57057000       4.65240000      -6.50048000
