6
Properties=species:S:1:pos:R:3 frame=T 21=T |=T Written=T by=T MDAnalysis=T XYZWriter=T (release=T 2.4.3)=T pbc="F F F"
H      -15.53831000      -2.79280000      -3.60787000
O      -14.90286000      -2.10276000      -3.82383000
H      -14.76676000      -1.60336000      -3.01268000
H      -13.27014000      -3.11305000      -2.96068000
O      -12.44060000      -3.01822000      -2.48450000
H      -11.89273000      -2.49517000      -3.07399000
