6
Properties=species:S:1:pos:R:3 frame=T 44=T |=T Written=T by=T MDAnalysis=T XYZWriter=T (release=T 2.4.3)=T pbc="F F F"
H       -5.24856000      -2.07241000      -3.11060000
O       -4.81432000      -1.46701000      -2.51892000
H       -5.07347000      -0.63288000      -2.89140000
H       -6.97046000      -3.82341000      -4.01476000
O       -6.70889000      -2.88851000      -3.99423000
H       -7.48291000      -2.42832000      -4.33984000
