6
Properties=species:S:1:pos:R:3 frame=T 30=T |=T Written=T by=T MDAnalysis=T XYZWriter=T (release=T 2.4.3)=T pbc="F F F"
H        3.05592000      14.10695000     -10.47531000
O        2.25537000      14.17097000     -10.99873000
H        2.34640000      13.48379000     -11.70798000
H        2.76877000      15.43440000     -12.15974000
O        2.86397000      15.86379000     -13.01803000
H        3.73898000      16.31124000     -13.00975000
