6
Properties=species:S:1:pos:R:3 frame=T 16=T |=T Written=T by=T MDAnalysis=T XYZWriter=T (release=T 2.4.3)=T pbc="F F F"
H        1.71338000     -10.91672000      11.96655000
O        2.50848000     -10.44954000      12.28076000
H        2.88228000     -11.05477000      12.91532000
H        2.54691000      -7.39504000      12.59302000
O        2.74624000      -7.76008000      11.72164000
H        2.88942000      -8.68718000      11.90459000
