6
Properties=species:S:1:pos:R:3 frame=T 51=T |=T Written=T by=T MDAnalysis=T XYZWriter=T (release=T 2.4.3)=T pbc="F F F"
H        0.57277000      -5.64607000     -13.11718000
O        0.38718000      -6.60297000     -13.01812000
H        0.07341000      -6.72179000     -12.12012000
H       -1.11163000      -6.42252000     -14.04721000
O       -1.99583000      -6.38199000     -14.39454000
H       -2.14981000      -5.45205000     -14.62374000
