6
Properties=species:S:1:pos:R:3 frame=T 41=T |=T Written=T by=T MDAnalysis=T XYZWriter=T (release=T 2.4.3)=T pbc="F F F"
H       14.58443000      10.27424000       9.20480000
O       13.66916000       9.93993000       9.25773000
H       13.75216000       9.02056000       9.47667000
H       16.39473000      11.93605000       9.95470000
O       16.17796000      11.25830000       9.34034000
H       16.21653000      10.48728000       9.96395000
