6
Properties=species:S:1:pos:R:3 frame=T 6=T |=T Written=T by=T MDAnalysis=T XYZWriter=T (release=T 2.4.3)=T pbc="F F F"
H       11.29380000      17.89128000      -6.58856000
O       11.11822000      17.99809000      -5.64967000
H       11.93448000      18.26425000      -5.22619000
H       13.22374000      18.03891000      -7.83650000
O       12.42685000      17.52419000      -8.05327000
H       12.71132000      16.68987000      -8.49600000
