6
Properties=species:S:1:pos:R:3 frame=T 24=T |=T Written=T by=T MDAnalysis=T XYZWriter=T (release=T 2.4.3)=T pbc="F F F"
H       12.60015000      -4.95029000       7.03983000
O       13.02767000      -4.27704000       6.48196000
H       12.47712000      -3.52413000       6.59424000
H       10.78831000      -6.04213000       8.76135000
O       10.95499000      -5.49027000       7.98684000
H       10.24723000      -5.81971000       7.43069000
