6
Properties=species:S:1:pos:R:3 frame=T 48=T |=T Written=T by=T MDAnalysis=T XYZWriter=T (release=T 2.4.3)=T pbc="F F F"
H       -6.13382000      -3.05312000       2.90028000
O       -6.98878000      -2.59876000       3.09612000
H       -7.21002000      -2.10975000       2.29883000
H       -8.84610000      -0.70310000       1.62289000
O       -7.93747000      -0.87397000       1.44144000
H       -7.63714000      -0.09675000       0.94141000
