6
Properties=species:S:1:pos:R:3 frame=T 3=T |=T Written=T by=T MDAnalysis=T XYZWriter=T (release=T 2.4.3)=T pbc="F F F"
H        0.47343000       7.02622000       6.65289000
O        0.63856000       7.06644000       7.59210000
H        1.61212000       7.17300000       7.63052000
H        1.51624000       7.02367000       4.91446000
O        0.54382000       6.95196000       4.79171000
H        0.44758000       6.16754000       4.23553000
