6
Properties=species:S:1:pos:R:3 frame=T 29=T |=T Written=T by=T MDAnalysis=T XYZWriter=T (release=T 2.4.3)=T pbc="F F F"
H       -6.34891000       5.08633000     -15.77734000
O       -6.93001000       4.59290000     -15.15775000
H       -7.81488000       4.78791000     -15.50923000
H       -5.15131000       6.70864000     -16.00903000
O       -4.93105000       5.93750000     -16.58969000
H       -4.28270000       5.37827000     -16.14736000
