6
Properties=species:S:1:pos:R:3 frame=T 17=T |=T Written=T by=T MDAnalysis=T XYZWriter=T (release=T 2.4.3)=T pbc="F F F"
H       -9.36541000      -4.05926000     -10.79056000
O       -8.87731000      -4.82394000     -10.43793000
H       -9.28504000      -5.57638000     -10.88209000
H      -10.56631000      -2.71108000     -10.73127000
O       -9.80483000      -2.34999000     -11.18715000
H       -9.77537000      -1.43948000     -10.83799000
