6
Properties=species:S:1:pos:R:3 frame=T 53=T |=T Written=T by=T MDAnalysis=T XYZWriter=T (release=T 2.4.3)=T pbc="F F F"
H       14.30352000      13.19043000      -3.83644000
O       13.73060000      13.68539000      -3.21189000
H       14.00634000      14.56746000      -3.40359000
H       10.70154000      13.96960000      -4.33225000
O       10.93385000      13.75322000      -3.44044000
H       11.75874000      14.25369000      -3.28731000
