6
Properties=species:S:1:pos:R:3 frame=T 34=T |=T Written=T by=T MDAnalysis=T XYZWriter=T (release=T 2.4.3)=T pbc="F F F"
H      -13.99047000     -15.12436000      18.19495000
O      -14.39155000     -15.82115000      17.61598000
H      -14.58812000     -16.54279000      18.22322000
H      -12.57789000     -16.69468000      17.99273000
O      -11.70845000     -16.94408000      18.33677000
H      -11.51914000     -17.76983000      17.84161000
