6
Properties=species:S:1:pos:R:3 frame=T 47=T |=T Written=T by=T MDAnalysis=T XYZWriter=T (release=T 2.4.3)=T pbc="F F F"
H       -5.33213000       8.94775000      -7.93631000
O       -5.93941000       8.24845000      -8.26178000
H       -6.05844000       8.40190000      -9.19746000
H       -5.87081000       8.13979000     -11.63779000
O       -5.62327000       8.74891000     -10.93890000
H       -5.17742000       9.47743000     -11.40120000
