6
Properties=species:S:1:pos:R:3 frame=T 30=T |=T Written=T by=T MDAnalysis=T XYZWriter=T (release=T 2.4.3)=T pbc="F F F"
H        3.27854000     -17.03035000       6.10019000
O        2.59033000     -17.55383000       6.50111000
H        1.87470000     -16.95475000       6.70190000
H        3.51416000     -15.07880000       5.98912000
O        4.24648000     -15.55876000       5.53781000
H        3.85159000     -16.05131000       4.74938000
