6
Properties=species:S:1:pos:R:3 frame=T 22=T |=T Written=T by=T MDAnalysis=T XYZWriter=T (release=T 2.4.3)=T pbc="F F F"
H        3.21425000       1.80360000       3.54644000
O        3.60824000       1.74172000       2.67238000
H        2.88630000       1.35761000       2.14773000
H        2.33210000       3.03714000       2.61114000
O        1.56671000       3.60264000       2.70793000
H        1.63659000       3.90404000       3.61001000
