6
Properties=species:S:1:pos:R:3 frame=T 1=T |=T Written=T by=T MDAnalysis=T XYZWriter=T (release=T 2.4.3)=T pbc="F F F"
H       16.33549000     -13.70228000      18.40830000
O       16.21640000     -13.80724000      19.34706000
H       15.27482000     -14.01882000      19.38622000
H       15.56736000     -16.44726000      18.55009000
O       16.19034000     -17.06591000      18.11716000
H       16.22661000     -17.84042000      18.69694000
