6
Properties=species:S:1:pos:R:3 frame=T 16=T |=T Written=T by=T MDAnalysis=T XYZWriter=T (release=T 2.4.3)=T pbc="F F F"
H      -17.19830000      -2.20068000      -7.74577000
O      -16.90906000      -1.33043000      -7.94251000
H      -16.82808000      -0.92292000      -7.07860000
H      -15.21243000      -2.08713000      -4.63446000
O      -15.70626000      -1.29643000      -4.98126000
H      -16.21321000      -0.94980000      -4.22124000
