6
Properties=species:S:1:pos:R:3 frame=T 16=T |=T Written=T by=T MDAnalysis=T XYZWriter=T (release=T 2.4.3)=T pbc="F F F"
H       -2.97966000      -9.95484000      -1.92379000
O       -2.56062000      -9.09589000      -1.96830000
H       -2.60246000      -8.90727000      -2.91024000
H       -2.30105000     -10.04564000      -4.23661000
O       -2.41824000      -9.12947000      -4.57811000
H       -1.54193000      -8.72841000      -4.56328000
