6
Properties=species:S:1:pos:R:3 frame=T 20=T |=T Written=T by=T MDAnalysis=T XYZWriter=T (release=T 2.4.3)=T pbc="F F F"
H       -0.29953000     -18.07932000     -12.67880000
O       -1.22140000     -17.89673000     -12.38129000
H       -1.25826000     -16.91338000     -12.47002000
H       -0.72449000     -18.72560000      -9.41720000
O       -0.02011000     -18.13055000      -9.69292000
H        0.07285000     -18.36520000     -10.66048000
