6
Properties=species:S:1:pos:R:3 frame=T 27=T |=T Written=T by=T MDAnalysis=T XYZWriter=T (release=T 2.4.3)=T pbc="F F F"
H       17.89778000       4.08840000       7.66199000
O       16.94401000       4.25381000       7.59914000
H       16.83420000       5.02681000       8.16706000
H       15.79766000       5.83159000       9.90248000
O       16.67564000       6.26441000      10.03538000
H       16.66655000       6.93430000       9.34144000
