6
Properties=species:S:1:pos:R:3 frame=T 49=T |=T Written=T by=T MDAnalysis=T XYZWriter=T (release=T 2.4.3)=T pbc="F F F"
H        3.36290000      16.75801000      -8.67317000
O        3.27529000      15.86597000      -8.97553000
H        2.45115000      15.45436000      -8.61039000
H        1.41702000      14.89981000     -11.43674000
O        1.65691000      15.79676000     -11.09389000
H        2.52965000      15.63123000     -10.66666000
