6
Properties=species:S:1:pos:R:3 frame=T 10=T |=T Written=T by=T MDAnalysis=T XYZWriter=T (release=T 2.4.3)=T pbc="F F F"
H       15.76229000     -15.71913000      14.26200000
O       16.54233000     -15.90111000      14.74831000
H       16.42263000     -15.34510000      15.53269000
H       17.31992000     -14.64856000      17.47859000
O       16.42981000     -14.61418000      17.10641000
H       16.01756000     -13.96180000      17.66143000
