6
Properties=species:S:1:pos:R:3 frame=T 29=T |=T Written=T by=T MDAnalysis=T XYZWriter=T (release=T 2.4.3)=T pbc="F F F"
H       -6.41149000       4.60912000     -13.36782000
O       -6.19478000       4.39308000     -12.44163000
H       -5.83004000       3.51237000     -12.47669000
H       -6.40827000       0.96508000     -13.22989000
O       -6.23207000       1.66673000     -12.62502000
H       -6.60985000       1.32532000     -11.80404000
