6
Properties=species:S:1:pos:R:3 frame=T 41=T |=T Written=T by=T MDAnalysis=T XYZWriter=T (release=T 2.4.3)=T pbc="F F F"
H       -2.62673000      15.84586000      -4.65605000
O       -2.86332000      15.91590000      -5.58081000
H       -3.83330000      15.95344000      -5.56447000
H       -2.69757000      14.05247000      -5.47847000
O       -2.32153000      13.17129000      -5.58459000
H       -2.86266000      12.62556000      -4.97792000
