6
Properties=species:S:1:pos:R:3 frame=T 23=T |=T Written=T by=T MDAnalysis=T XYZWriter=T (release=T 2.4.3)=T pbc="F F F"
H        6.34782000      -5.06740000       0.43692000
O        6.04738000      -5.46882000      -0.39883000
H        5.09929000      -5.51899000      -0.22230000
H        3.02998000      -5.35484000       0.91469000
O        3.42511000      -5.91931000       0.23538000
H        3.61741000      -6.72557000       0.70615000
