6
Properties=species:S:1:pos:R:3 frame=T 4=T |=T Written=T by=T MDAnalysis=T XYZWriter=T (release=T 2.4.3)=T pbc="F F F"
H       -4.08731000       3.51492000      16.73243000
O       -4.91610000       3.70277000      17.19981000
H       -5.52571000       3.17592000      16.68154000
H       -1.70089000       3.26159000      16.31445000
O       -2.63943000       3.15854000      16.17524000
H       -2.77012000       3.22117000      15.22068000
