6
Properties=species:S:1:pos:R:3 frame=T 12=T |=T Written=T by=T MDAnalysis=T XYZWriter=T (release=T 2.4.3)=T pbc="F F F"
H       -8.17428000       5.14028000      18.09118000
O       -8.17216000       5.60647000      18.91413000
H       -9.08787000       5.54854000      19.20499000
H      -11.63859000       4.46835000      19.15858000
O      -11.22155000       5.34644000      19.08110000
H      -11.05189000       5.40645000      18.14421000
