6
Properties=species:S:1:pos:R:3 frame=T 14=T |=T Written=T by=T MDAnalysis=T XYZWriter=T (release=T 2.4.3)=T pbc="F F F"
H        9.93101000      -6.68395000      13.73811000
O       10.03922000      -6.98109000      14.65644000
H        9.21772000      -7.51907000      14.72916000
H       11.31627000      -8.22121000      15.32378000
O       12.02757000      -8.87015000      15.24817000
H       11.87208000      -9.33092000      14.42474000
