6
Properties=species:S:1:pos:R:3 frame=T 15=T |=T Written=T by=T MDAnalysis=T XYZWriter=T (release=T 2.4.3)=T pbc="F F F"
H       15.51822000     -13.63639000      -4.41330000
O       15.62544000     -12.77408000      -4.00576000
H       15.24722000     -12.16925000      -4.63335000
H       14.51224000     -12.23686000      -2.72975000
O       13.59597000     -11.98788000      -2.65192000
H       13.50367000     -11.76394000      -1.71406000
