6
Properties=species:S:1:pos:R:3 frame=T 1=T |=T Written=T by=T MDAnalysis=T XYZWriter=T (release=T 2.4.3)=T pbc="F F F"
H       -1.15361000     -13.18457000       6.91373000
O       -0.29677000     -12.91243000       7.26122000
H        0.32532000     -12.82330000       6.52561000
H        1.14409000     -13.96060000       4.05380000
O        0.45607000     -14.05193000       4.75779000
H       -0.22156000     -13.43097000       4.46081000
