6
Properties=species:S:1:pos:R:3 frame=T 24=T |=T Written=T by=T MDAnalysis=T XYZWriter=T (release=T 2.4.3)=T pbc="F F F"
H       -3.45474000     -14.40357000      -6.44163000
O       -4.15749000     -13.80967000      -6.11364000
H       -4.70004000     -13.59197000      -6.88418000
H       -5.29224000     -13.58639000      -4.90780000
O       -5.90603000     -13.77985000      -4.16386000
H       -6.31047000     -14.65152000      -4.35787000
