6
Properties=species:S:1:pos:R:3 frame=T 1=T |=T Written=T by=T MDAnalysis=T XYZWriter=T (release=T 2.4.3)=T pbc="F F F"
H       -2.03995000      11.22099000     -13.83215000
O       -2.44920000      10.86755000     -14.59759000
H       -3.38734000      11.08602000     -14.44092000
H       -2.98898000       8.17942000     -13.03901000
O       -2.19914000       8.18381000     -13.60256000
H       -2.21595000       9.06824000     -13.98151000
