6
Properties=species:S:1:pos:R:3 frame=T 34=T |=T Written=T by=T MDAnalysis=T XYZWriter=T (release=T 2.4.3)=T pbc="F F F"
H       11.73893000       4.30956000     -12.30684000
O       12.03267000       5.22250000     -12.45218000
H       12.28974000       5.28246000     -13.37778000
H        8.94242000       5.19299000     -11.35886000
O        9.55957000       5.86748000     -11.66575000
H       10.35236000       5.33914000     -11.90857000
