6
Properties=species:S:1:pos:R:3 frame=T 40=T |=T Written=T by=T MDAnalysis=T XYZWriter=T (release=T 2.4.3)=T pbc="F F F"
H       18.04424000     -14.57828000      -5.59633000
O       18.45877000     -14.58664000      -4.73518000
H       17.71828000     -14.51267000      -4.09959000
H       18.76896000     -14.52428000      -7.57973000
O       17.96843000     -14.96390000      -7.28066000
H       18.18774000     -15.90809000      -7.29715000
