6
Properties=species:S:1:pos:R:3 frame=T 13=T |=T Written=T by=T MDAnalysis=T XYZWriter=T (release=T 2.4.3)=T pbc="F F F"
H        7.00430000       9.94007000      -0.67352000
O        6.22935000      10.37086000      -1.05753000
H        6.58481000      11.23229000      -1.35058000
H        6.64190000       9.27187000      -2.49545000
O        6.76176000       8.57056000      -3.11460000
H        5.93657000       8.06765000      -3.07659000
