6
Properties=species:S:1:pos:R:3 frame=T 21=T |=T Written=T by=T MDAnalysis=T XYZWriter=T (release=T 2.4.3)=T pbc="F F F"
H       16.74850000     -18.30304000       6.76104000
O       17.11579000     -19.07181000       6.33379000
H       17.96530000     -18.75314000       5.99552000
H       14.86724000     -18.70082000       4.07113000
O       15.84886000     -18.60413000       4.02972000
H       16.21249000     -19.00397000       4.83851000
