6
Properties=species:S:1:pos:R:3 frame=T 27=T |=T Written=T by=T MDAnalysis=T XYZWriter=T (release=T 2.4.3)=T pbc="F F F"
H       12.68400000       3.59611000      -9.69107000
O       11.77656000       3.92761000      -9.88191000
H       11.90427000       4.67145000     -10.42869000
H       14.61345000       2.59881000     -10.50358000
O       13.88127000       1.98937000     -10.61835000
H       13.56786000       1.84379000      -9.72400000
