6
Properties=species:S:1:pos:R:3 frame=T 2=T |=T Written=T by=T MDAnalysis=T XYZWriter=T (release=T 2.4.3)=T pbc="F F F"
H       12.23188000      -9.58536000       3.05972000
O       11.97265000     -10.44292000       2.74349000
H       11.01801000     -10.42935000       2.67422000
H        9.21038000     -10.27841000       3.51771000
O        9.35084000     -10.13855000       2.58196000
H        8.78209000      -9.37073000       2.37312000
