6
Properties=species:S:1:pos:R:3 frame=T 21=T |=T Written=T by=T MDAnalysis=T XYZWriter=T (release=T 2.4.3)=T pbc="F F F"
H        6.62107000      17.30416000      -5.89857000
O        7.55284000      17.15972000      -5.85754000
H        7.66501000      16.65014000      -5.06000000
H        4.09841000      16.88299000      -6.27398000
O        4.78761000      17.20591000      -5.66885000
H        4.97357000      16.47017000      -5.05301000
