6
Properties=species:S:1:pos:R:3 frame=T 20=T |=T Written=T by=T MDAnalysis=T XYZWriter=T (release=T 2.4.3)=T pbc="F F F"
H      -15.37230000      -8.53126000       5.82213000
O      -15.66169000      -7.97044000       6.55456000
H      -14.82887000      -7.58902000       6.86487000
H      -14.71934000     -10.33453000       5.61281000
O      -15.42996000     -10.13258000       4.97865000
H      -16.13545000     -10.75314000       5.18024000
