6
Properties=species:S:1:pos:R:3 frame=T 16=T |=T Written=T by=T MDAnalysis=T XYZWriter=T (release=T 2.4.3)=T pbc="F F F"
H       17.08550000       1.87597000     -11.15036000
O       17.66476000       2.37248000     -11.74463000
H       18.36835000       2.66768000     -11.13395000
H       16.42960000       4.69891000     -13.04001000
O       16.44064000       3.95801000     -13.66529000
H       16.62460000       3.19984000     -13.11809000
