6
Properties=species:S:1:pos:R:3 frame=T 15=T |=T Written=T by=T MDAnalysis=T XYZWriter=T (release=T 2.4.3)=T pbc="F F F"
H       -2.96275000      11.56175000      16.95035000
O       -2.71205000      12.42970000      17.37070000
H       -1.74859000      12.35975000      17.49497000
H       -4.00985000      14.00011000      14.46853000
O       -3.79467000      13.05357000      14.62352000
H       -3.37237000      13.01946000      15.50286000
