6
Properties=species:S:1:pos:R:3 frame=T 40=T |=T Written=T by=T MDAnalysis=T XYZWriter=T (release=T 2.4.3)=T pbc="F F F"
H       10.46692000     -11.40726000       6.89470000
O       11.05106000     -12.07454000       6.53005000
H       10.65821000     -12.87230000       6.85243000
H       14.28095000     -11.91147000       6.87831000
O       13.76543000     -12.52374000       7.40758000
H       12.87048000     -12.38976000       7.07619000
