6
Properties=species:S:1:pos:R:3 frame=T 52=T |=T Written=T by=T MDAnalysis=T XYZWriter=T (release=T 2.4.3)=T pbc="F F F"
H      -10.30202000      -9.40585000      12.67497000
O      -10.55223000      -8.68528000      12.08697000
H      -10.04981000      -8.89725000      11.25646000
H       -8.35525000      -9.05158000      10.29418000
O       -9.10664000      -9.39908000       9.76565000
H       -9.29137000      -8.66871000       9.14926000
