6
Properties=species:S:1:pos:R:3 frame=T 14=T |=T Written=T by=T MDAnalysis=T XYZWriter=T (release=T 2.4.3)=T pbc="F F F"
H      -15.07752000       7.24953000      -0.13904000
O      -15.09501000       6.48750000      -0.71969000
H      -15.87934000       5.97944000      -0.49063000
H      -18.50282000       7.50307000      -1.53377000
O      -17.81844000       7.49609000      -0.85085000
H      -16.98922000       7.35074000      -1.31951000
