6
Properties=species:S:1:pos:R:3 frame=T 22=T |=T Written=T by=T MDAnalysis=T XYZWriter=T (release=T 2.4.3)=T pbc="F F F"
H       -9.65515000      -9.84908000      -0.60783000
O       -9.20030000     -10.16234000       0.19924000
H       -8.76057000     -10.98521000      -0.07492000
H      -10.56361000     -12.81991000       1.34097000
O      -10.60343000     -11.96053000       1.84272000
H      -10.00420000     -11.33118000       1.35994000
