6
Properties=species:S:1:pos:R:3 frame=T 49=T |=T Written=T by=T MDAnalysis=T XYZWriter=T (release=T 2.4.3)=T pbc="F F F"
H      -14.01180000      -6.10654000       2.02423000
O      -14.55860000      -6.46906000       1.32257000
H      -14.32394000      -7.41369000       1.34449000
H      -11.99514000      -5.12209000       3.05618000
O      -12.78219000      -4.57658000       2.87341000
H      -12.93842000      -4.70196000       1.92604000
