6
Properties=species:S:1:pos:R:3 frame=T 11=T |=T Written=T by=T MDAnalysis=T XYZWriter=T (release=T 2.4.3)=T pbc="F F F"
H      -11.69647000      -7.48042000      -8.98693000
O      -11.86839000      -6.59937000      -8.60800000
H      -11.90270000      -6.04259000      -9.38082000
H      -11.35402000      -4.04999000     -10.72912000
O      -11.58674000      -4.94313000     -10.93774000
H      -10.93070000      -5.17314000     -11.59551000
