6
Properties=species:S:1:pos:R:3 frame=T 33=T |=T Written=T by=T MDAnalysis=T XYZWriter=T (release=T 2.4.3)=T pbc="F F F"
H      -12.99852000      -5.51257000      18.04488000
O      -12.88773000      -5.06054000      17.20357000
H      -12.62869000      -5.79769000      16.62346000
H      -14.87402000      -6.15949000      16.46589000
O      -15.08650000      -7.13431000      16.47968000
H      -15.25159000      -7.37393000      15.57907000
