6
Properties=species:S:1:pos:R:3 frame=T 1=T |=T Written=T by=T MDAnalysis=T XYZWriter=T (release=T 2.4.3)=T pbc="F F F"
H       -3.40885000       0.45514000      -5.29618000
O       -4.25503000      -0.02466000      -5.29597000
H       -4.92976000       0.64623000      -5.39459000
H       -2.85712000      -0.30540000      -6.71448000
O       -2.42697000      -0.93023000      -7.33942000
H       -2.59591000      -1.79669000      -6.97643000
