6
Properties=species:S:1:pos:R:3 frame=T 0=T |=T Written=T by=T MDAnalysis=T XYZWriter=T (release=T 2.4.3)=T pbc="F F F"
H        0.54494000     -17.82400000      -8.42088000
O       -0.11928000     -18.35262000      -8.89869000
H       -0.89306000     -18.30763000      -8.32751000
H       -0.45888000     -18.86023000     -10.76092000
O       -1.24493000     -18.97644000     -11.29618000
H       -1.81524000     -19.36618000     -10.64467000
