6
Properties=species:S:1:pos:R:3 frame=T 49=T |=T Written=T by=T MDAnalysis=T XYZWriter=T (release=T 2.4.3)=T pbc="F F F"
H       -9.75169000      12.21998000       4.39358000
O      -10.70265000      11.93345000       4.32905000
H      -10.83014000      11.76360000       3.39496000
H      -11.02169000       9.91721000       1.48000000
O      -11.36945000      10.42896000       2.26247000
H      -11.91878000       9.82665000       2.77688000
