6
Properties=species:S:1:pos:R:3 frame=T 9=T |=T Written=T by=T MDAnalysis=T XYZWriter=T (release=T 2.4.3)=T pbc="F F F"
H       14.78748000      15.35328000       1.45024000
O       15.18604000      16.08577000       0.96189000
H       15.00252000      16.86012000       1.52016000
H       13.07002000      18.21216000       2.76557000
O       13.95481000      17.87383000       2.75756000
H       14.09908000      17.60384000       3.66816000
