6
Properties=species:S:1:pos:R:3 frame=T 43=T |=T Written=T by=T MDAnalysis=T XYZWriter=T (release=T 2.4.3)=T pbc="F F F"
H        2.22513000      12.14153000      -5.02332000
O        1.56784000      12.80089000      -4.89430000
H        1.96709000      13.56952000      -5.29704000
H        0.21367000      11.43411000      -4.94283000
O       -0.54714000      10.94498000      -4.64933000
H       -1.26642000      11.25791000      -5.24624000
