6
Properties=species:S:1:pos:R:3 frame=T 49=T |=T Written=T by=T MDAnalysis=T XYZWriter=T (release=T 2.4.3)=T pbc="F F F"
H       -2.81401000       0.15319000       3.28490000
O       -3.36740000       0.79206000       2.80022000
H       -2.70896000       1.22802000       2.26734000
H       -2.50580000       1.99196000       4.27530000
O       -2.07924000       2.69584000       4.77089000
H       -2.75612000       3.38250000       4.78269000
