6
Properties=species:S:1:pos:R:3 frame=T 44=T |=T Written=T by=T MDAnalysis=T XYZWriter=T (release=T 2.4.3)=T pbc="F F F"
H       -2.33748000     -14.08495000       9.59784000
O       -3.13492000     -13.53049000       9.59614000
H       -3.73875000     -14.11358000      10.05209000
H       -4.83038000     -15.78070000      10.56088000
O       -5.11347000     -14.94859000      10.94900000
H       -4.80931000     -14.97188000      11.86630000
