6
Properties=species:S:1:pos:R:3 frame=T 7=T |=T Written=T by=T MDAnalysis=T XYZWriter=T (release=T 2.4.3)=T pbc="F F F"
H      -16.01512000      12.32119000     -14.04481000
O      -16.43580000      11.74343000     -13.36022000
H      -17.38768000      11.76466000     -13.56671000
H      -16.39447000      13.49331000     -15.99683000
O      -15.79701000      12.89029000     -15.55084000
H      -15.05735000      12.78296000     -16.15725000
