6
Properties=species:S:1:pos:R:3 frame=T 35=T |=T Written=T by=T MDAnalysis=T XYZWriter=T (release=T 2.4.3)=T pbc="F F F"
H      -10.21778000      -0.83198000      -4.09504000
O       -9.37864000      -1.08822000      -3.69859000
H       -8.90160000      -1.36151000      -4.51762000
H      -10.30637000      -3.23774000      -1.48062000
O       -9.56377000      -2.62462000      -1.32668000
H       -9.63478000      -2.07901000      -2.09774000
