6
Properties=species:S:1:pos:R:3 frame=T 32=T |=T Written=T by=T MDAnalysis=T XYZWriter=T (release=T 2.4.3)=T pbc="F F F"
H      -14.45822000     -11.53936000      -1.97345000
O      -15.01358000     -11.48134000      -1.18937000
H      -15.86642000     -11.29698000      -1.57253000
H      -16.08134000     -14.10354000       0.17810000
O      -16.22895000     -13.92262000      -0.77396000
H      -15.83712000     -13.03727000      -0.82899000
