6
Properties=species:S:1:pos:R:3 frame=T 31=T |=T Written=T by=T MDAnalysis=T XYZWriter=T (release=T 2.4.3)=T pbc="F F F"
H       -9.13018000      -9.00024000     -12.41274000
O       -9.00120000      -8.09252000     -12.13730000
H       -8.15574000      -7.86969000     -12.56996000
H      -10.93525000      -7.17852000      -9.03181000
O      -10.43117000      -7.79910000      -9.57852000
H      -10.11685000      -7.32966000     -10.35043000
