6
Properties=species:S:1:pos:R:3 frame=T 47=T |=T Written=T by=T MDAnalysis=T XYZWriter=T (release=T 2.4.3)=T pbc="F F F"
H       -4.15602000     -11.14954000      -3.46314000
O       -4.01046000     -10.22237000      -3.17844000
H       -4.47954000     -10.17444000      -2.33711000
H       -5.90704000     -12.37163000      -3.06280000
O       -5.15478000     -12.49035000      -3.62397000
H       -4.47987000     -12.81930000      -2.95766000
