6
Properties=species:S:1:pos:R:3 frame=T 41=T |=T Written=T by=T MDAnalysis=T XYZWriter=T (release=T 2.4.3)=T pbc="F F F"
H      -16.38357000     -16.96721000      -7.87871000
O      -15.60161000     -17.25074000      -8.41751000
H      -15.03231000     -17.67089000      -7.79223000
H      -17.64909000     -16.76852000     -10.99972000
O      -18.22606000     -17.41038000     -10.58794000
H      -17.63117000     -17.89021000      -9.99557000
