6
Properties=species:S:1:pos:R:3 frame=T 8=T |=T Written=T by=T MDAnalysis=T XYZWriter=T (release=T 2.4.3)=T pbc="F F F"
H        6.34221000      -0.85431000      -4.13123000
O        6.62558000      -1.07886000      -5.03265000
H        7.52028000      -1.44182000      -4.82764000
H        3.51036000      -1.43089000      -5.68955000
O        4.09740000      -1.99447000      -6.18119000
H        4.95975000      -1.65745000      -5.84224000
