6
Properties=species:S:1:pos:R:3 frame=T 44=T |=T Written=T by=T MDAnalysis=T XYZWriter=T (release=T 2.4.3)=T pbc="F F F"
H        2.61153000       2.14114000     -18.29607000
O        2.51138000       1.23904000     -18.69008000
H        1.98282000       1.44130000     -19.47620000
H        1.52500000       3.76584000     -16.82973000
O        2.26123000       3.74406000     -17.43292000
H        2.74682000       4.51824000     -17.19747000
