6
Properties=species:S:1:pos:R:3 frame=T 22=T |=T Written=T by=T MDAnalysis=T XYZWriter=T (release=T 2.4.3)=T pbc="F F F"
H       -1.46793000       1.36848000     -15.41314000
O       -1.37444000       0.43092000     -15.22272000
H       -0.98613000       0.35709000     -14.35813000
H       -2.36735000      -0.26023000     -16.44684000
O       -2.50376000      -1.02171000     -16.99711000
H       -3.44938000      -1.08987000     -17.17177000
