6
Properties=species:S:1:pos:R:3 frame=T 40=T |=T Written=T by=T MDAnalysis=T XYZWriter=T (release=T 2.4.3)=T pbc="F F F"
H        0.97943000      13.93986000      -3.04791000
O        1.15983000      14.84317000      -2.73837000
H        0.31789000      15.12095000      -2.36431000
H        1.59600000      12.17881000      -4.63424000
O        2.08833000      12.93341000      -4.97805000
H        1.47278000      13.67367000      -4.88072000
