6
Properties=species:S:1:pos:R:3 frame=T 34=T |=T Written=T by=T MDAnalysis=T XYZWriter=T (release=T 2.4.3)=T pbc="F F F"
H       18.25869000      15.23576000      -3.52503000
O       19.14997000      14.81999000      -3.49738000
H       18.97706000      13.86449000      -3.39608000
H       18.09679000      12.05836000      -4.20988000
O       18.85185000      11.92236000      -3.62820000
H       18.45968000      11.85299000      -2.73491000
