6
Properties=species:S:1:pos:R:3 frame=T 48=T |=T Written=T by=T MDAnalysis=T XYZWriter=T (release=T 2.4.3)=T pbc="F F F"
H       10.85885000     -10.28555000     -15.80218000
O       10.39324000     -11.09042000     -15.50052000
H        9.53763000     -10.99411000     -15.91209000
H       11.90531000     -11.61653000     -12.61001000
O       11.01662000     -11.60551000     -12.98915000
H       11.15689000     -11.33685000     -13.90749000
