6
Properties=species:S:1:pos:R:3 frame=T 17=T |=T Written=T by=T MDAnalysis=T XYZWriter=T (release=T 2.4.3)=T pbc="F F F"
H      -10.30208000      -5.27903000      10.82046000
O       -9.53273000      -4.74411000      10.64290000
H       -8.96919000      -5.33763000      10.12837000
H      -10.01508000      -2.89580000       9.91134000
O      -10.78364000      -2.30521000       9.83349000
H      -11.31426000      -2.60926000      10.55406000
