6
Properties=species:S:1:pos:R:3 frame=T 48=T |=T Written=T by=T MDAnalysis=T XYZWriter=T (release=T 2.4.3)=T pbc="F F F"
H      -12.93733000     -15.11770000     -17.28203000
O      -11.98926000     -15.26504000     -17.08973000
H      -12.04652000     -15.88267000     -16.34112000
H      -11.26083000     -16.94682000     -17.59184000
O      -10.92245000     -17.84878000     -17.74247000
H       -9.99068000     -17.76475000     -17.50304000
