6
Properties=species:S:1:pos:R:3 frame=T 19=T |=T Written=T by=T MDAnalysis=T XYZWriter=T (release=T 2.4.3)=T pbc="F F F"
H      -17.89179000      -8.99076000       8.66059000
O      -18.03865000      -8.53848000       7.83208000
H      -17.17179000      -8.13345000       7.62833000
H      -17.68044000     -10.82681000      10.26478000
O      -17.20743000     -10.00610000      10.05854000
H      -16.50390000     -10.23579000       9.45243000
