6
Properties=species:S:1:pos:R:3 frame=T 41=T |=T Written=T by=T MDAnalysis=T XYZWriter=T (release=T 2.4.3)=T pbc="F F F"
H       17.89153000     -15.81669000     -14.80708000
O       18.13748000     -15.94270000     -13.85871000
H       17.59629000     -16.69755000     -13.53326000
H       15.90731000     -16.24649000     -16.03555000
O       16.81759000     -15.92048000     -16.09161000
H       16.81238000     -15.40075000     -16.89812000
