6
Properties=species:S:1:pos:R:3 frame=T 34=T |=T Written=T by=T MDAnalysis=T XYZWriter=T (release=T 2.4.3)=T pbc="F F F"
H       -5.64491000      14.77010000      -8.36487000
O       -6.48360000      14.33980000      -8.51195000
H       -6.23471000      13.44520000      -8.76263000
H       -6.17120000      11.34713000      -7.59533000
O       -5.79009000      11.66881000      -8.42455000
H       -5.15927000      10.96951000      -8.57854000
