6
Properties=species:S:1:pos:R:3 frame=T 15=T |=T Written=T by=T MDAnalysis=T XYZWriter=T (release=T 2.4.3)=T pbc="F F F"
H       15.52852000     -12.27131000       3.37076000
O       16.31716000     -12.76772000       3.58117000
H       16.84585000     -12.15705000       4.08416000
H       19.21601000     -13.00389000       2.77687000
O       18.65232000     -12.71908000       2.03883000
H       17.74734000     -12.60265000       2.36174000
