6
Properties=species:S:1:pos:R:3 frame=T 14=T |=T Written=T by=T MDAnalysis=T XYZWriter=T (release=T 2.4.3)=T pbc="F F F"
H       -5.49347000       7.28155000     -13.07228000
O       -5.58109000       7.63214000     -13.97238000
H       -5.00235000       8.41457000     -13.92427000
H       -7.89047000       9.41719000     -12.13770000
O       -7.82354000       8.81111000     -12.89216000
H       -6.87132000       8.81431000     -13.08436000
