6
Properties=species:S:1:pos:R:3 frame=T 8=T |=T Written=T by=T MDAnalysis=T XYZWriter=T (release=T 2.4.3)=T pbc="F F F"
H       15.96213000     -12.53712000     -14.88033000
O       15.91607000     -12.14104000     -15.75845000
H       16.61558000     -12.60310000     -16.24918000
H       14.89349000     -11.03547000     -16.90379000
O       14.78841000     -10.18050000     -17.35461000
H       15.58393000      -9.69487000     -17.07284000
