6
Properties=species:S:1:pos:R:3 frame=T 36=T |=T Written=T by=T MDAnalysis=T XYZWriter=T (release=T 2.4.3)=T pbc="F F F"
H       10.15818000      12.79865000      -6.55359000
O        9.38437000      12.47087000      -6.09297000
H        8.77042000      12.57788000      -6.79548000
H        6.96573000      13.01676000      -8.54648000
O        7.51222000      12.27190000      -8.32458000
H        6.93347000      11.58010000      -8.00207000
