6
Properties=species:S:1:pos:R:3 frame=T 19=T |=T Written=T by=T MDAnalysis=T XYZWriter=T (release=T 2.4.3)=T pbc="F F F"
H      -12.35505000     -15.37410000      -9.06677000
O      -11.86190000     -15.18736000      -8.25876000
H      -12.44685000     -14.57654000      -7.73746000
H      -10.25231000     -16.11398000      -8.05562000
O       -9.76244000     -16.78827000      -7.57824000
H       -9.57739000     -16.27560000      -6.79534000
