6
Properties=species:S:1:pos:R:3 frame=T 1=T |=T Written=T by=T MDAnalysis=T XYZWriter=T (release=T 2.4.3)=T pbc="F F F"
H       11.52073000     -10.16523000      16.50207000
O       12.46406000     -10.02922000      16.68001000
H       12.69668000      -9.14700000      16.36318000
H       14.90562000     -11.61579000      17.47093000
O       14.19322000     -12.17279000      17.13805000
H       13.52834000     -11.55806000      16.80504000
