6
Properties=species:S:1:pos:R:3 frame=T 7=T |=T Written=T by=T MDAnalysis=T XYZWriter=T (release=T 2.4.3)=T pbc="F F F"
H        8.73575000     -10.38683000      14.90190000
O        8.19189000      -9.66746000      14.48893000
H        8.81971000      -9.00578000      14.15042000
H        9.04640000      -7.94661000      12.51438000
O        9.58766000      -7.69584000      13.26226000
H       10.18977000      -7.06554000      12.86689000
