6
Properties=species:S:1:pos:R:3 frame=T 27=T |=T Written=T by=T MDAnalysis=T XYZWriter=T (release=T 2.4.3)=T pbc="F F F"
H        5.94276000      -0.88673000      -9.88852000
O        5.55285000       0.01294000      -9.90984000
H        5.55413000       0.31592000     -10.85392000
H        6.89929000      -2.67652000      -9.06124000
O        6.14094000      -2.67662000      -9.66724000
H        6.51572000      -2.62621000     -10.55863000
