6
Properties=species:S:1:pos:R:3 frame=T 21=T |=T Written=T by=T MDAnalysis=T XYZWriter=T (release=T 2.4.3)=T pbc="F F F"
H       -5.26115000       8.69366000       5.46843000
O       -5.13923000       9.19835000       4.66525000
H       -5.92247000       9.78548000       4.67899000
H       -4.64496000      10.00713000       6.84311000
O       -5.33829000      10.53671000       7.25224000
H       -5.22240000      10.18654000       8.15436000
