6
Properties=species:S:1:pos:R:3 frame=T 6=T |=T Written=T by=T MDAnalysis=T XYZWriter=T (release=T 2.4.3)=T pbc="F F F"
H       11.50582000      17.83127000       3.24579000
O       12.14186000      17.21260000       2.84535000
H       12.34039000      17.57152000       1.97328000
H        9.37485000      17.28913000       3.08871000
O        9.68431000      17.73250000       3.87077000
H        9.74554000      17.03531000       4.53177000
