6
Properties=species:S:1:pos:R:3 frame=T 43=T |=T Written=T by=T MDAnalysis=T XYZWriter=T (release=T 2.4.3)=T pbc="F F F"
H       -9.98813000     -10.52529000      13.99080000
O      -10.67813000     -10.90676000      14.56017000
H      -10.20742000     -11.52765000      15.12789000
H      -10.25673000     -10.16425000      16.45086000
O      -10.04958000      -9.84059000      17.33909000
H       -9.65800000     -10.60384000      17.80291000
