6
Properties=species:S:1:pos:R:3 frame=T 2=T |=T Written=T by=T MDAnalysis=T XYZWriter=T (release=T 2.4.3)=T pbc="F F F"
H        1.46938000      18.89652000       4.50551000
O        2.18402000      18.35672000       4.84761000
H        2.25417000      18.66031000       5.75640000
H        1.45472000      16.16957000       3.11817000
O        1.58088000      15.95759000       4.06854000
H        1.89621000      16.77244000       4.41954000
