6
Properties=species:S:1:pos:R:3 frame=T 31=T |=T Written=T by=T MDAnalysis=T XYZWriter=T (release=T 2.4.3)=T pbc="F F F"
H      -17.16148000      10.84289000       3.84102000
O      -18.06273000      10.60860000       4.05810000
H      -18.50479000      10.34835000       3.24165000
H      -18.08053000      13.90111000       3.71121000
O      -18.83071000      13.48577000       4.13156000
H      -18.40700000      12.66253000       4.40507000
