6
Properties=species:S:1:pos:R:3 frame=T 7=T |=T Written=T by=T MDAnalysis=T XYZWriter=T (release=T 2.4.3)=T pbc="F F F"
H      -18.44601000     -14.03113000      13.19822000
O      -17.66451000     -13.59304000      12.81023000
H      -18.01027000     -12.94000000      12.22188000
H      -17.91804000     -15.61015000      15.37588000
O      -17.09965000     -15.12676000      15.27316000
H      -17.18547000     -14.69605000      14.40982000
