6
Properties=species:S:1:pos:R:3 frame=T 47=T |=T Written=T by=T MDAnalysis=T XYZWriter=T (release=T 2.4.3)=T pbc="F F F"
H       -6.65316000      13.58180000     -18.14498000
O       -6.58913000      12.69262000     -18.48920000
H       -7.48383000      12.38221000     -18.35119000
H       -6.51270000      15.40184000     -16.13017000
O       -5.88217000      14.78214000     -16.49494000
H       -5.72003000      15.29041000     -17.33391000
