6
Properties=species:S:1:pos:R:3 frame=T 32=T |=T Written=T by=T MDAnalysis=T XYZWriter=T (release=T 2.4.3)=T pbc="F F F"
H       -3.66321000      -0.85982000      -1.30231000
O       -4.27464000      -1.40622000      -1.84222000
H       -3.85462000      -1.43413000      -2.69732000
H       -2.66223000      -2.62265000      -3.68834000
O       -2.95581000      -1.94315000      -4.27654000
H       -3.70701000      -2.33896000      -4.78420000
