6
Properties=species:S:1:pos:R:3 frame=T 36=T |=T Written=T by=T MDAnalysis=T XYZWriter=T (release=T 2.4.3)=T pbc="F F F"
H      -11.17845000      16.64042000     -14.54463000
O      -10.34897000      16.78255000     -14.04321000
H      -10.07500000      15.87611000     -13.79082000
H       -9.63539000      14.19330000     -12.66825000
O       -9.65933000      14.10319000     -13.64452000
H       -8.74268000      14.24726000     -13.87735000
