6
Properties=species:S:1:pos:R:3 frame=T 22=T |=T Written=T by=T MDAnalysis=T XYZWriter=T (release=T 2.4.3)=T pbc="F F F"
H       -9.42761000     -10.55426000       6.42461000
O       -9.92112000     -10.16181000       5.66828000
H       -9.30652000     -10.40195000       4.94129000
H      -10.59533000      -7.83620000       7.22688000
O      -10.60822000      -7.47261000       6.33564000
H      -10.34074000      -8.22255000       5.78616000
