6
Properties=species:S:1:pos:R:3 frame=T 10=T |=T Written=T by=T MDAnalysis=T XYZWriter=T (release=T 2.4.3)=T pbc="F F F"
H       11.41378000       9.59529000     -10.85868000
O       11.78625000      10.34111000     -10.39924000
H       12.69803000      10.34647000     -10.65821000
H        9.07367000      12.25080000     -11.07745000
O        9.74174000      11.92354000     -11.67316000
H       10.20980000      11.30118000     -11.10309000
