6
Properties=species:S:1:pos:R:3 frame=T 29=T |=T Written=T by=T MDAnalysis=T XYZWriter=T (release=T 2.4.3)=T pbc="F F F"
H       -5.86973000      -5.68377000      -9.97201000
O       -5.89578000      -4.78128000     -10.25396000
H       -5.11033000      -4.75490000     -10.81511000
H       -3.42817000      -3.24384000     -12.02094000
O       -4.13162000      -3.89750000     -12.22255000
H       -4.81405000      -3.39288000     -12.72561000
