6
Properties=species:S:1:pos:R:3 frame=T 18=T |=T Written=T by=T MDAnalysis=T XYZWriter=T (release=T 2.4.3)=T pbc="F F F"
H        6.95698000      -1.03955000     -17.25295000
O        7.70792000      -1.37132000     -16.71670000
H        8.40832000      -1.33862000     -17.36091000
H        7.40816000      -1.94507000     -15.15225000
O        7.35827000      -1.90428000     -14.18596000
H        7.76479000      -2.71445000     -13.91558000
