6
Properties=species:S:1:pos:R:3 frame=T 28=T |=T Written=T by=T MDAnalysis=T XYZWriter=T (release=T 2.4.3)=T pbc="F F F"
H      -14.06389000       2.33531000      18.57788000
O      -13.73356000       1.46672000      18.86951000
H      -12.75892000       1.51858000      18.91675000
H      -15.50453000      -0.79113000      17.99439000
O      -14.63661000      -0.95182000      18.36486000
H      -14.45749000      -0.19236000      18.90541000
