6
Properties=species:S:1:pos:R:3 frame=T 39=T |=T Written=T by=T MDAnalysis=T XYZWriter=T (release=T 2.4.3)=T pbc="F F F"
H      -12.06107000      14.50437000     -12.36104000
O      -11.46291000      14.43656000     -11.62023000
H      -10.66732000      14.00148000     -12.00393000
H      -12.37482000      17.29514000     -11.02656000
O      -11.54187000      17.10499000     -11.45823000
H      -11.46616000      16.13617000     -11.39426000
