6
Properties=species:S:1:pos:R:3 frame=T 19=T |=T Written=T by=T MDAnalysis=T XYZWriter=T (release=T 2.4.3)=T pbc="F F F"
H      -17.40098000       9.19060000      13.73051000
O      -18.31068000       9.37305000      13.95948000
H      -18.88482000       8.87871000      13.37781000
H      -15.75341000       8.30424000      12.35070000
O      -15.41453000       8.69192000      13.15695000
H      -15.15707000       9.53223000      12.80066000
