6
Properties=species:S:1:pos:R:3 frame=T 32=T |=T Written=T by=T MDAnalysis=T XYZWriter=T (release=T 2.4.3)=T pbc="F F F"
H       -8.23342000      -7.37084000      -5.30530000
O       -8.58901000      -6.53253000      -5.63835000
H       -9.22695000      -6.87386000      -6.25420000
H       -6.84495000      -6.09509000      -8.23063000
O       -6.87247000      -5.52377000      -7.48107000
H       -7.63499000      -5.86926000      -7.03435000
