6
Properties=species:S:1:pos:R:3 frame=T 10=T |=T Written=T by=T MDAnalysis=T XYZWriter=T (release=T 2.4.3)=T pbc="F F F"
H      -14.28259000      -2.67696000      -8.52818000
O      -15.16597000      -3.02017000      -8.75006000
H      -14.95920000      -3.30592000      -9.65012000
H      -16.34226000      -2.13766000      -9.90890000
O      -17.01557000      -1.76649000     -10.49330000
H      -16.50217000      -1.35402000     -11.20399000
