6
Properties=species:S:1:pos:R:3 frame=T 15=T |=T Written=T by=T MDAnalysis=T XYZWriter=T (release=T 2.4.3)=T pbc="F F F"
H        6.92698000       3.22560000     -13.61130000
O        7.75794000       3.70488000     -13.49424000
H        7.65636000       4.15409000     -12.64736000
H        8.19664000       4.96605000     -10.94555000
O        7.27603000       4.66564000     -11.11166000
H        7.01738000       4.15844000     -10.32025000
