6
Properties=species:S:1:pos:R:3 frame=T 12=T |=T Written=T by=T MDAnalysis=T XYZWriter=T (release=T 2.4.3)=T pbc="F F F"
H      -15.79020000     -11.24454000      13.32594000
O      -15.61257000     -11.75121000      14.12070000
H      -16.23111000     -12.46671000      14.01081000
H      -18.45415000     -13.62081000      13.40913000
O      -17.58649000     -13.73256000      13.78787000
H      -17.38835000     -14.63876000      13.47662000
