6
Properties=species:S:1:pos:R:3 frame=T 22=T |=T Written=T by=T MDAnalysis=T XYZWriter=T (release=T 2.4.3)=T pbc="F F F"
H      -16.91722000       2.64448000      -2.80630000
O      -17.77940000       2.36583000      -2.51959000
H      -17.66530000       1.52301000      -2.02129000
H      -16.46545000       0.83448000      -0.18002000
O      -17.15358000       0.35521000      -0.67720000
H      -17.97075000       0.51697000      -0.22701000
