6
Properties=species:S:1:pos:R:3 frame=T 46=T |=T Written=T by=T MDAnalysis=T XYZWriter=T (release=T 2.4.3)=T pbc="F F F"
H      -11.21489000      -5.11978000       7.38346000
O      -10.32441000      -5.42731000       7.19068000
H      -10.07420000      -6.04481000       7.89190000
H       -8.63167000      -7.07120000       5.17227000
O       -8.88117000      -7.41201000       6.06769000
H       -9.53563000      -6.75658000       6.38897000
