6
Properties=species:S:1:pos:R:3 frame=T 27=T |=T Written=T by=T MDAnalysis=T XYZWriter=T (release=T 2.4.3)=T pbc="F F F"
H       -3.89248000      -4.32633000     -11.95928000
O       -4.60501000      -3.85740000     -12.36717000
H       -4.25542000      -2.95992000     -12.46327000
H       -2.92005000      -4.68743000     -14.12170000
O       -2.86603000      -5.47580000     -13.55168000
H       -3.80804000      -5.56932000     -13.28808000
