6
Properties=species:S:1:pos:R:3 frame=T 4=T |=T Written=T by=T MDAnalysis=T XYZWriter=T (release=T 2.4.3)=T pbc="F F F"
H       -6.66068000      13.35422000      -0.49654000
O       -6.89092000      12.48458000      -0.08676000
H       -7.09454000      12.76390000       0.81915000
H       -7.13905000      15.09604000       0.79145000
O       -7.08786000      14.86658000       1.73534000
H       -7.87359000      14.35883000       1.85075000
