6
Properties=species:S:1:pos:R:3 frame=T 42=T |=T Written=T by=T MDAnalysis=T XYZWriter=T (release=T 2.4.3)=T pbc="F F F"
H      -16.22737000      12.61520000      -4.95059000
O      -16.25703000      11.75959000      -4.50663000
H      -17.18670000      11.75702000      -4.23132000
H      -14.74633000       8.53307000      -3.45618000
O      -15.53418000       8.98429000      -3.72821000
H      -15.19071000       9.80956000      -4.06525000
