6
Properties=species:S:1:pos:R:3 frame=T 17=T |=T Written=T by=T MDAnalysis=T XYZWriter=T (release=T 2.4.3)=T pbc="F F F"
H      -17.53471000       4.04119000       1.69333000
O      -17.31076000       3.11454000       1.71093000
H      -16.78394000       3.09665000       2.49926000
H      -16.72616000       5.46096000       0.10793000
O      -16.98883000       5.99028000       0.87229000
H      -16.12703000       6.33750000       1.14135000
