6
Properties=species:S:1:pos:R:3 frame=T 16=T |=T Written=T by=T MDAnalysis=T XYZWriter=T (release=T 2.4.3)=T pbc="F F F"
H        2.61475000       4.39926000     -16.10144000
O        2.65524000       5.29402000     -15.73536000
H        2.49941000       5.20906000     -14.76169000
H        2.81755000       5.62878000     -12.20426000
O        2.47049000       5.59501000     -13.08855000
H        1.55456000       5.90899000     -12.99926000
