6
Properties=species:S:1:pos:R:3 frame=T 44=T |=T Written=T by=T MDAnalysis=T XYZWriter=T (release=T 2.4.3)=T pbc="F F F"
H       15.95674000      15.67270000       6.21344000
O       15.76261000      14.71595000       6.23503000
H       15.02343000      14.57605000       5.62199000
H       17.03739000      17.44038000       7.09359000
O       16.35276000      17.46170000       6.40650000
H       15.51849000      17.39699000       6.88014000
