6
Properties=species:S:1:pos:R:3 frame=T 34=T |=T Written=T by=T MDAnalysis=T XYZWriter=T (release=T 2.4.3)=T pbc="F F F"
H       -5.34098000     -15.44250000      13.80619000
O       -6.01323000     -15.09421000      13.20928000
H       -6.17397000     -15.84350000      12.62253000
H       -7.33278000     -14.43126000      16.33506000
O       -7.68352000     -15.01097000      15.68553000
H       -6.96055000     -15.18788000      15.10354000
