6
Properties=species:S:1:pos:R:3 frame=T 5=T |=T Written=T by=T MDAnalysis=T XYZWriter=T (release=T 2.4.3)=T pbc="F F F"
H       -1.62681000      -2.74754000     -16.04334000
O       -1.78878000      -2.81961000     -16.98854000
H       -2.57771000      -3.33618000     -17.12998000
H       -1.68247000      -3.63251000     -13.55190000
O       -1.27591000      -3.27160000     -14.36269000
H       -0.56182000      -2.79818000     -13.95378000
