6
Properties=species:S:1:pos:R:3 frame=T 33=T |=T Written=T by=T MDAnalysis=T XYZWriter=T (release=T 2.4.3)=T pbc="F F F"
H      -15.99226000      -9.73902000       2.39982000
O      -15.29806000      -9.27225000       2.90978000
H      -15.28024000      -9.77614000       3.70273000
H      -13.81481000      -9.04354000       1.76561000
O      -13.42772000      -9.45448000       0.96486000
H      -12.56723000      -8.99738000       0.92681000
