6
Properties=species:S:1:pos:R:3 frame=T 20=T |=T Written=T by=T MDAnalysis=T XYZWriter=T (release=T 2.4.3)=T pbc="F F F"
H       17.26262000       7.81652000       6.19535000
O       16.70563000       8.51804000       6.58368000
H       16.99137000       9.32000000       6.10586000
H       17.70382000      11.06152000       8.62116000
O       17.20401000      10.20467000       8.62266000
H       17.31065000       9.90948000       7.71150000
