6
Properties=species:S:1:pos:R:3 frame=T 34=T |=T Written=T by=T MDAnalysis=T XYZWriter=T (release=T 2.4.3)=T pbc="F F F"
H        7.29388000      16.82353000     -17.28398000
O        6.47969000      17.32137000     -17.38002000
H        6.61476000      17.98145000     -18.05741000
H        4.73674000      14.51436000     -17.54300000
O        5.46723000      15.04753000     -17.86936000
H        5.39370000      15.86723000     -17.37092000
