6
Properties=species:S:1:pos:R:3 frame=T 22=T |=T Written=T by=T MDAnalysis=T XYZWriter=T (release=T 2.4.3)=T pbc="F F F"
H       -9.21718000     -14.86219000      -6.34088000
O       -9.16909000     -15.78349000      -6.63580000
H       -9.06715000     -16.29031000      -5.80304000
H       -5.76611000     -15.87847000      -6.28696000
O       -6.48809000     -15.24424000      -6.34265000
H       -7.20001000     -15.72723000      -5.92545000
