6
Properties=species:S:1:pos:R:3 frame=T 11=T |=T Written=T by=T MDAnalysis=T XYZWriter=T (release=T 2.4.3)=T pbc="F F F"
H      -10.94582000      -3.46286000     -13.53081000
O      -11.42028000      -2.70521000     -13.14709000
H      -12.35088000      -2.84478000     -13.45660000
H      -12.08348000      -1.67362000     -16.73332000
O      -11.44193000      -1.61874000     -16.04584000
H      -11.62549000      -2.36306000     -15.46062000
