6
Properties=species:S:1:pos:R:3 frame=T 35=T |=T Written=T by=T MDAnalysis=T XYZWriter=T (release=T 2.4.3)=T pbc="F F F"
H       -3.96229000      17.94200000      14.54732000
O       -3.26175000      18.50588000      14.81867000
H       -3.62942000      19.05869000      15.53330000
H       -1.72787000      16.46165000      17.00327000
O       -2.01224000      17.29574000      17.35929000
H       -2.19770000      17.81953000      16.56740000
