6
Properties=species:S:1:pos:R:3 frame=T 14=T |=T Written=T by=T MDAnalysis=T XYZWriter=T (release=T 2.4.3)=T pbc="F F F"
H       -1.65490000      -0.52993000      -8.01069000
O       -1.25845000      -1.26088000      -7.52177000
H       -1.94498000      -1.87788000      -7.27397000
H        1.07179000      -1.69757000      -9.93567000
O        0.24649000      -2.15950000      -9.94182000
H       -0.18049000      -1.76527000      -9.19098000
