6
Properties=species:S:1:pos:R:3 frame=T 21=T |=T Written=T by=T MDAnalysis=T XYZWriter=T (release=T 2.4.3)=T pbc="F F F"
H        0.24095000       4.92832000     -18.32302000
O        0.08598000       3.96482000     -18.36812000
H       -0.37590000       3.91461000     -19.23283000
H        1.47752000       2.76636000     -18.36522000
O        2.28394000       2.28231000     -18.60165000
H        2.35301000       2.48417000     -19.55700000
