6
Properties=species:S:1:pos:R:3 frame=T 48=T |=T Written=T by=T MDAnalysis=T XYZWriter=T (release=T 2.4.3)=T pbc="F F F"
H       11.82073000      18.63413000      -0.92131000
O       11.14651000      18.19266000      -1.44395000
H       11.60834000      18.09927000      -2.28635000
H        9.66860000      18.30314000      -2.40927000
O        8.79237000      17.88552000      -2.55809000
H        8.33264000      18.55599000      -3.05295000
