6
Properties=species:S:1:pos:R:3 frame=T 0=T |=T Written=T by=T MDAnalysis=T XYZWriter=T (release=T 2.4.3)=T pbc="F F F"
H        0.87221000      18.61188000       6.30584000
O        1.71593000      19.04211000       6.23408000
H        2.06464000      18.95991000       7.14255000
H        2.76578000      18.01070000       5.23660000
O        3.06519000      17.43128000       4.51612000
H        2.31792000      17.35376000       3.92889000
