6
Properties=species:S:1:pos:R:3 frame=T 15=T |=T Written=T by=T MDAnalysis=T XYZWriter=T (release=T 2.4.3)=T pbc="F F F"
H       14.33809000       2.38490000       4.28800000
O       14.10489000       3.18408000       3.78387000
H       14.46839000       3.06958000       2.91266000
H       15.91926000       1.28902000       0.94027000
O       15.36507000       1.78252000       1.50867000
H       15.21475000       2.62309000       1.03595000
