6
Properties=species:S:1:pos:R:3 frame=T 36=T |=T Written=T by=T MDAnalysis=T XYZWriter=T (release=T 2.4.3)=T pbc="F F F"
H      -13.20542000      -9.45153000     -10.56454000
O      -13.24829000     -10.02183000     -11.34806000
H      -14.03017000      -9.66986000     -11.79135000
H      -11.37921000     -10.27719000      -8.75766000
O      -11.86276000     -11.06687000      -9.03090000
H      -12.16120000     -10.85085000      -9.92723000
