6
Properties=species:S:1:pos:R:3 frame=T 41=T |=T Written=T by=T MDAnalysis=T XYZWriter=T (release=T 2.4.3)=T pbc="F F F"
H       -8.46140000      13.94788000      -6.38032000
O       -7.93828000      14.09791000      -5.55122000
H       -7.32197000      14.80472000      -5.76274000
H       -9.63964000      15.22537000      -5.74125000
O      -10.52435000      15.44209000      -5.45861000
H      -10.91856000      15.84451000      -6.23371000
