6
Properties=species:S:1:pos:R:3 frame=T 6=T |=T Written=T by=T MDAnalysis=T XYZWriter=T (release=T 2.4.3)=T pbc="F F F"
H        7.87699000     -10.52099000      -6.44889000
O        7.27991000     -10.76599000      -5.72595000
H        6.49076000     -11.01290000      -6.18207000
H        4.07466000     -12.13990000      -6.60063000
O        4.68788000     -11.45080000      -6.30569000
H        4.83422000     -11.71621000      -5.36730000
