6
Properties=species:S:1:pos:R:3 frame=T 31=T |=T Written=T by=T MDAnalysis=T XYZWriter=T (release=T 2.4.3)=T pbc="F F F"
H       -2.74798000      -4.51289000      13.41026000
O       -3.59129000      -4.81763000      13.07912000
H       -4.02403000      -5.27365000      13.81962000
H       -4.20943000      -3.34675000      12.39908000
O       -4.35964000      -2.52536000      11.91483000
H       -3.53068000      -2.00902000      12.09707000
