6
Properties=species:S:1:pos:R:3 frame=T 7=T |=T Written=T by=T MDAnalysis=T XYZWriter=T (release=T 2.4.3)=T pbc="F F F"
H       -5.63475000       8.97708000      -2.05425000
O       -5.09919000       9.13348000      -1.23899000
H       -5.49088000       9.92764000      -0.83701000
H       -4.78254000       7.77924000      -0.48964000
O       -4.89848000       6.92942000      -0.05466000
H       -4.18384000       6.86765000       0.62021000
