6
Properties=species:S:1:pos:R:3 frame=T 39=T |=T Written=T by=T MDAnalysis=T XYZWriter=T (release=T 2.4.3)=T pbc="F F F"
H       14.95025000      -5.08983000      -9.72157000
O       15.06759000      -4.15428000      -9.94420000
H       15.70341000      -4.20817000     -10.66866000
H       13.92780000      -2.01301000      -7.99303000
O       13.94934000      -2.10273000      -8.95428000
H       14.44584000      -2.93112000      -9.13517000
