6
Properties=species:S:1:pos:R:3 frame=T 31=T |=T Written=T by=T MDAnalysis=T XYZWriter=T (release=T 2.4.3)=T pbc="F F F"
H       11.56867000     -13.17053000      -7.41576000
O       11.54832000     -14.11779000      -7.16939000
H       11.93467000     -14.59758000      -7.93409000
H       12.25481000     -11.01662000      -8.36368000
O       11.44553000     -11.54784000      -8.48479000
H       11.45564000     -11.80697000      -9.40624000
