6
Properties=species:S:1:pos:R:3 frame=T 35=T |=T Written=T by=T MDAnalysis=T XYZWriter=T (release=T 2.4.3)=T pbc="F F F"
H       -2.75079000     -15.64312000      11.21317000
O       -2.43306000     -15.84665000      12.09555000
H       -2.45222000     -16.79244000      12.13873000
H       -0.96104000     -15.66822000      13.19575000
O       -0.36134000     -15.11831000      13.73780000
H       -0.15095000     -15.68041000      14.49221000
