6
Properties=species:S:1:pos:R:3 frame=T 17=T |=T Written=T by=T MDAnalysis=T XYZWriter=T (release=T 2.4.3)=T pbc="F F F"
H        6.12051000       6.95112000     -13.05275000
O        6.99059000       7.15354000     -13.41547000
H        7.06543000       6.41685000     -14.00785000
H        7.03299000       6.86824000     -11.37629000
O        6.23813000       6.66497000     -10.83424000
H        6.22886000       7.35289000     -10.13872000
