6
Properties=species:S:1:pos:R:3 frame=T 34=T |=T Written=T by=T MDAnalysis=T XYZWriter=T (release=T 2.4.3)=T pbc="F F F"
H       16.47593000       9.59810000      -6.02705000
O       16.32036000      10.38060000      -5.55257000
H       15.46065000      10.59974000      -5.88094000
H       16.94123000       7.72871000      -7.53188000
O       17.07573000       7.99438000      -6.60536000
H       17.93232000       7.58324000      -6.35052000
