6
Properties=species:S:1:pos:R:3 frame=T 10=T |=T Written=T by=T MDAnalysis=T XYZWriter=T (release=T 2.4.3)=T pbc="F F F"
H       17.26938000      11.25674000      -2.67921000
O       17.73897000      12.08457000      -2.83947000
H       17.93121000      12.33286000      -1.90811000
H       18.53144000      12.38715000      -0.14858000
O       17.97167000      13.18178000      -0.15036000
H       18.66181000      13.85667000      -0.13818000
