6
Properties=species:S:1:pos:R:3 frame=T 20=T |=T Written=T by=T MDAnalysis=T XYZWriter=T (release=T 2.4.3)=T pbc="F F F"
H      -13.81725000      11.38926000      12.12240000
O      -13.10768000      10.70998000      12.27675000
H      -13.54427000       9.88978000      12.16396000
H      -14.03712000      11.00918000      15.33167000
O      -13.11809000      11.17802000      15.04264000
H      -13.16245000      10.97479000      14.10223000
