6
Properties=species:S:1:pos:R:3 frame=T 15=T |=T Written=T by=T MDAnalysis=T XYZWriter=T (release=T 2.4.3)=T pbc="F F F"
H       11.59026000      -5.58014000      18.32090000
O       11.55549000      -5.96466000      17.41635000
H       10.60573000      -5.88572000      17.19207000
H       11.11577000      -4.23286000      14.64718000
O       11.56934000      -4.00708000      15.44565000
H       11.43467000      -4.70684000      16.07953000
