6
Properties=species:S:1:pos:R:3 frame=T 47=T |=T Written=T by=T MDAnalysis=T XYZWriter=T (release=T 2.4.3)=T pbc="F F F"
H       14.58712000      -1.93129000     -14.21787000
O       14.41262000      -1.85359000     -13.27544000
H       15.26744000      -1.52535000     -12.95288000
H       16.05770000      -1.50367000     -16.25826000
O       15.19106000      -1.40012000     -15.80468000
H       14.94908000      -0.49901000     -16.00880000
