6
Properties=species:S:1:pos:R:3 frame=T 9=T |=T Written=T by=T MDAnalysis=T XYZWriter=T (release=T 2.4.3)=T pbc="F F F"
H        3.77951000      -0.10668000      13.58202000
O        4.20328000       0.58667000      13.10903000
H        3.65910000       0.53511000      12.31779000
H        5.95836000       0.37519000      13.94853000
O        6.88161000       0.13443000      14.14535000
H        6.74832000      -0.59481000      14.75838000
