6
Properties=species:S:1:pos:R:3 frame=T 15=T |=T Written=T by=T MDAnalysis=T XYZWriter=T (release=T 2.4.3)=T pbc="F F F"
H       10.53888000      -8.90124000      -3.50147000
O       10.65979000      -8.22403000      -4.21064000
H       11.46417000      -7.72583000      -3.94244000
H        9.67455000      -6.56464000      -6.17996000
O        9.14013000      -7.38240000      -6.28099000
H        9.39848000      -7.86939000      -5.46762000
