6
Properties=species:S:1:pos:R:3 frame=T 19=T |=T Written=T by=T MDAnalysis=T XYZWriter=T (release=T 2.4.3)=T pbc="F F F"
H      -10.19176000      17.37049000       6.71404000
O      -10.80369000      17.90382000       7.27518000
H      -10.49782000      17.86220000       8.21458000
H       -9.46581000      16.49469000       4.81306000
O       -8.98657000      16.59032000       5.67930000
H       -8.60186000      17.48343000       5.63617000
