6
Properties=species:S:1:pos:R:3 frame=T 5=T |=T Written=T by=T MDAnalysis=T XYZWriter=T (release=T 2.4.3)=T pbc="F F F"
H        1.17262000       9.65574000      -4.88231000
O        0.72747000       8.79988000      -4.84042000
H        0.61540000       8.63997000      -5.79353000
H        0.94329000      10.42482000      -7.44909000
O        1.12357000       9.51967000      -7.76507000
H        1.79228000       9.23570000      -7.11074000
