6
Properties=species:S:1:pos:R:3 frame=T 16=T |=T Written=T by=T MDAnalysis=T XYZWriter=T (release=T 2.4.3)=T pbc="F F F"
H        1.47186000      -0.51078000      18.14290000
O        0.95288000       0.30178000      18.14794000
H        0.26337000       0.20978000      17.44453000
H        0.04528000      -2.92155000      16.84878000
O       -0.62854000      -2.33893000      17.17476000
H       -1.28789000      -2.24535000      16.44150000
