6
Properties=species:S:1:pos:R:3 frame=T 28=T |=T Written=T by=T MDAnalysis=T XYZWriter=T (release=T 2.4.3)=T pbc="F F F"
H       15.80477000      11.52459000       1.17790000
O       15.71941000      10.64376000       0.76599000
H       15.67558000      10.84816000      -0.19072000
H       18.60872000      12.31979000       3.04242000
O       17.67887000      12.28415000       3.25317000
H       17.36714000      11.48749000       2.77654000
