6
Properties=species:S:1:pos:R:3 frame=T 22=T |=T Written=T by=T MDAnalysis=T XYZWriter=T (release=T 2.4.3)=T pbc="F F F"
H        1.18643000       1.87596000     -11.70413000
O        1.09905000       2.44263000     -12.50465000
H        0.13504000       2.51622000     -12.61340000
H        3.79396000       3.59351000     -11.94631000
O        3.65240000       3.49428000     -12.89413000
H        2.72268000       3.31688000     -13.01761000
