6
Properties=species:S:1:pos:R:3 frame=T 16=T |=T Written=T by=T MDAnalysis=T XYZWriter=T (release=T 2.4.3)=T pbc="F F F"
H        2.38381000      -7.14084000      -3.15343000
O        3.02506000      -6.43271000      -3.25743000
H        2.54351000      -5.62839000      -3.05302000
H        2.16119000      -4.57906000      -0.94775000
O        2.40027000      -4.33533000      -1.85848000
H        2.41098000      -3.38343000      -1.68689000
