6
Properties=species:S:1:pos:R:3 frame=T 5=T |=T Written=T by=T MDAnalysis=T XYZWriter=T (release=T 2.4.3)=T pbc="F F F"
H       16.35198000      15.85170000     -13.86000000
O       16.76169000      15.16770000     -14.36613000
H       17.63833000      15.10758000     -13.96187000
H       17.82469000      15.28656000     -15.75963000
O       18.47726000      15.50411000     -16.43723000
H       18.22500000      14.92579000     -17.21899000
