6
Properties=species:S:1:pos:R:3 frame=T 1=T |=T Written=T by=T MDAnalysis=T XYZWriter=T (release=T 2.4.3)=T pbc="F F F"
H       17.37758000      18.47092000      -7.71829000
O       18.13902000      18.84957000      -7.26254000
H       17.85991000      19.03728000      -6.36850000
H       15.28070000      17.56020000      -8.33869000
O       16.14818000      17.39738000      -8.69123000
H       16.06644000      17.56523000      -9.64352000
