6
Properties=species:S:1:pos:R:3 frame=T 51=T |=T Written=T by=T MDAnalysis=T XYZWriter=T (release=T 2.4.3)=T pbc="F F F"
H      -17.35307000     -11.33402000      16.98227000
O      -16.63610000     -11.24039000      16.32041000
H      -15.89730000     -11.61175000      16.81726000
H      -14.32617000     -12.70494000      17.14476000
O      -14.14214000     -11.96438000      16.55296000
H      -13.66365000     -11.36308000      17.10449000
