6
Properties=species:S:1:pos:R:3 frame=T 38=T |=T Written=T by=T MDAnalysis=T XYZWriter=T (release=T 2.4.3)=T pbc="F F F"
H      -17.00334000       2.76055000     -15.47574000
O      -17.21172000       3.19210000     -14.62778000
H      -16.43390000       2.86350000     -14.08641000
H      -15.32996000       4.17582000     -12.79533000
O      -15.50548000       3.27994000     -12.42196000
H      -16.36503000       3.29476000     -12.01780000
