6
Properties=species:S:1:pos:R:3 frame=T 52=T |=T Written=T by=T MDAnalysis=T XYZWriter=T (release=T 2.4.3)=T pbc="F F F"
H        0.19118000      14.31716000      -5.52996000
O        0.25316000      15.27768000      -5.49549000
H        0.61058000      15.46783000      -6.38313000
H       -0.11795000      17.08843000      -5.70933000
O       -0.30958000      18.03294000      -5.62753000
H        0.11970000      18.44580000      -6.39612000
