6
Properties=species:S:1:pos:R:3 frame=T 20=T |=T Written=T by=T MDAnalysis=T XYZWriter=T (release=T 2.4.3)=T pbc="F F F"
H        1.03402000      -7.28773000      -5.27140000
O        1.09816000      -7.75669000      -4.40020000
H        0.66076000      -8.58678000      -4.63671000
H        1.90954000      -7.17005000      -3.04529000
O        2.44776000      -6.85697000      -2.32530000
H        1.99986000      -7.10488000      -1.53627000
