6
Properties=species:S:1:pos:R:3 frame=T 39=T |=T Written=T by=T MDAnalysis=T XYZWriter=T (release=T 2.4.3)=T pbc="F F F"
H      -17.82500000       6.00372000      -2.16307000
O      -17.60084000       5.33722000      -1.51051000
H      -17.24387000       4.60121000      -2.04951000
H      -16.99484000       3.30772000      -3.59175000
O      -17.75707000       3.01446000      -3.07277000
H      -18.46102000       3.06265000      -3.72321000
