6
Properties=species:S:1:pos:R:3 frame=T 7=T |=T Written=T by=T MDAnalysis=T XYZWriter=T (release=T 2.4.3)=T pbc="F F F"
H        3.00778000     -14.08251000       3.81325000
O        3.48574000     -13.79813000       4.59831000
H        4.42016000     -13.86099000       4.32287000
H        5.85007000     -12.76551000       3.61941000
O        6.29549000     -13.62063000       3.71705000
H        6.37933000     -14.04383000       2.85379000
