6
Properties=species:S:1:pos:R:3 frame=T 43=T |=T Written=T by=T MDAnalysis=T XYZWriter=T (release=T 2.4.3)=T pbc="F F F"
H        8.76468000      14.43277000       8.04462000
O        8.44832000      13.92518000       7.29509000
H        9.16885000      13.34854000       7.02382000
H       10.93342000      11.62460000       5.89585000
O       10.44639000      12.48358000       5.99558000
H        9.83862000      12.54217000       5.20382000
