6
Properties=species:S:1:pos:R:3 frame=T 47=T |=T Written=T by=T MDAnalysis=T XYZWriter=T (release=T 2.4.3)=T pbc="F F F"
H       -7.02137000      -7.79279000      -4.31379000
O       -7.21139000      -6.92022000      -3.95977000
H       -6.42282000      -6.80241000      -3.46145000
H       -6.65320000     -10.21275000      -5.40985000
O       -7.16031000      -9.58194000      -4.87236000
H       -7.99586000      -9.50546000      -5.36257000
