6
Properties=species:S:1:pos:R:3 frame=T 23=T |=T Written=T by=T MDAnalysis=T XYZWriter=T (release=T 2.4.3)=T pbc="F F F"
H       13.85232000       3.31816000       2.26780000
O       13.97904000       4.28676000       2.29200000
H       14.38044000       4.51349000       1.43114000
H       15.85557000       5.49761000      -0.00579000
O       14.93950000       5.22489000      -0.08498000
H       14.51701000       6.00708000       0.27532000
