6
Properties=species:S:1:pos:R:3 frame=T 42=T |=T Written=T by=T MDAnalysis=T XYZWriter=T (release=T 2.4.3)=T pbc="F F F"
H        8.53436000      -1.94817000       9.70701000
O        8.91092000      -1.34345000       9.03588000
H        9.83292000      -1.22110000       9.28477000
H       12.26634000      -0.72447000       8.97043000
O       11.36790000      -0.67863000       9.30329000
H       11.23506000       0.20925000       9.61234000
