6
Properties=species:S:1:pos:R:3 frame=T 20=T |=T Written=T by=T MDAnalysis=T XYZWriter=T (release=T 2.4.3)=T pbc="F F F"
H       -7.31396000      -0.30538000     -16.10571000
O       -6.92303000      -0.01719000     -16.92362000
H       -6.32586000       0.68571000     -16.61646000
H       -7.02854000      -1.99566000     -14.52461000
O       -7.97078000      -1.80894000     -14.71502000
H       -8.25538000      -1.07941000     -14.13582000
