6
Properties=species:S:1:pos:R:3 frame=T 1=T |=T Written=T by=T MDAnalysis=T XYZWriter=T (release=T 2.4.3)=T pbc="F F F"
H      -16.73287000     -16.11192000      11.82112000
O      -16.41218000     -15.68098000      12.63512000
H      -15.51837000     -15.42828000      12.36242000
H      -14.38001000     -13.90614000      11.72363000
O      -13.92017000     -13.97393000      12.57718000
H      -13.35540000     -14.76299000      12.48150000
