6
Properties=species:S:1:pos:R:3 frame=T 32=T |=T Written=T by=T MDAnalysis=T XYZWriter=T (release=T 2.4.3)=T pbc="F F F"
H      -15.75720000     -14.79323000      18.03076000
O      -16.32469000     -14.44617000      17.28052000
H      -16.15907000     -15.07574000      16.53844000
H      -17.52843000     -12.36527000      18.89933000
O      -17.87180000     -12.31880000      17.98114000
H      -17.55438000     -13.11930000      17.56119000
