6
Properties=species:S:1:pos:R:3 frame=T 33=T |=T Written=T by=T MDAnalysis=T XYZWriter=T (release=T 2.4.3)=T pbc="F F F"
H       -1.60564000       9.75061000      -6.64078000
O       -2.43422000      10.18563000      -6.76239000
H       -2.36641000      11.06453000      -6.36529000
H       -4.46694000       8.88530000      -8.78036000
O       -4.69717000       9.33833000      -7.97024000
H       -3.84397000       9.43966000      -7.54133000
