6
Properties=species:S:1:pos:R:3 frame=T 14=T |=T Written=T by=T MDAnalysis=T XYZWriter=T (release=T 2.4.3)=T pbc="F F F"
H        1.41005000     -16.92274000      -6.29878000
O        1.40313000     -16.59544000      -5.35427000
H        2.02542000     -15.83451000      -5.35227000
H        1.16028000     -18.59284000      -7.36621000
O        1.97911000     -18.16319000      -7.61780000
H        2.65917000     -18.65154000      -7.12993000
