6
Properties=species:S:1:pos:R:3 frame=T 31=T |=T Written=T by=T MDAnalysis=T XYZWriter=T (release=T 2.4.3)=T pbc="F F F"
H       15.31775000      17.34671000      14.92571000
O       14.82207000      18.07970000      14.52392000
H       15.10237000      18.85914000      15.03391000
H       16.44443000      15.52827000      15.77812000
O       16.64475000      15.97515000      14.95336000
H       17.59448000      15.97906000      14.91985000
