6
Properties=species:S:1:pos:R:3 frame=T 16=T |=T Written=T by=T MDAnalysis=T XYZWriter=T (release=T 2.4.3)=T pbc="F F F"
H        4.62311000      -2.72512000     -14.81308000
O        5.40265000      -2.19702000     -15.01671000
H        5.29603000      -1.83564000     -15.89250000
H        6.73684000      -1.45511000     -14.39442000
O        7.25650000      -0.77653000     -13.90588000
H        8.15869000      -1.10805000     -13.83430000
