6
Properties=species:S:1:pos:R:3 frame=T 44=T |=T Written=T by=T MDAnalysis=T XYZWriter=T (release=T 2.4.3)=T pbc="F F F"
H       18.82048000      -4.48852000     -11.16482000
O       17.92548000      -4.36249000     -10.83588000
H       17.96774000      -4.54153000      -9.86163000
H       17.46697000      -3.87249000      -7.90583000
O       17.72946000      -4.79174000      -7.88778000
H       16.91606000      -5.23469000      -7.58544000
