6
Properties=species:S:1:pos:R:3 frame=T 44=T |=T Written=T by=T MDAnalysis=T XYZWriter=T (release=T 2.4.3)=T pbc="F F F"
H        1.86925000     -16.37953000      -0.20924000
O        1.14395000     -17.03221000      -0.12980000
H        1.58734000     -17.88609000      -0.26836000
H       -0.57167000     -16.73908000       0.12362000
O       -1.47662000     -16.59617000      -0.19491000
H       -1.89486000     -17.44375000      -0.10653000
