6
Properties=species:S:1:pos:R:3 frame=T 4=T |=T Written=T by=T MDAnalysis=T XYZWriter=T (release=T 2.4.3)=T pbc="F F F"
H      -12.29452000       0.54615000      -3.26982000
O      -12.12711000      -0.31557000      -3.68981000
H      -12.68296000      -0.25236000      -4.48508000
H      -13.43401000      -2.82930000      -2.84920000
O      -12.49065000      -2.85345000      -2.58024000
H      -12.18409000      -1.95890000      -2.75830000
