6
Properties=species:S:1:pos:R:3 frame=T 2=T |=T Written=T by=T MDAnalysis=T XYZWriter=T (release=T 2.4.3)=T pbc="F F F"
H        7.92549000      -2.61446000       9.23535000
O        7.53294000      -3.04849000       8.43757000
H        6.64490000      -2.66945000       8.40401000
H        9.71773000      -1.34831000      10.82505000
O        9.34648000      -2.06495000      10.31815000
H        8.88860000      -2.53643000      11.02199000
