6
Properties=species:S:1:pos:R:3 frame=T 41=T |=T Written=T by=T MDAnalysis=T XYZWriter=T (release=T 2.4.3)=T pbc="F F F"
H      -15.41936000     -13.06073000       2.64810000
O      -15.87441000     -12.22623000       2.65612000
H      -15.35098000     -11.74670000       3.29175000
H      -14.45053000     -11.65288000       4.96289000
O      -14.66849000     -10.77331000       4.65690000
H      -14.08565000     -10.24169000       5.21794000
