6
Properties=species:S:1:pos:R:3 frame=T 12=T |=T Written=T by=T MDAnalysis=T XYZWriter=T (release=T 2.4.3)=T pbc="F F F"
H       -7.51488000      -0.73499000      -0.05108000
O       -8.38010000      -0.31086000      -0.19375000
H       -8.36324000      -0.02791000      -1.12954000
H      -10.50212000      -1.14255000       2.05269000
O      -10.55046000      -1.39194000       1.09462000
H       -9.73987000      -0.97187000       0.76877000
