6
Properties=species:S:1:pos:R:3 frame=T 42=T |=T Written=T by=T MDAnalysis=T XYZWriter=T (release=T 2.4.3)=T pbc="F F F"
H      -15.05722000       5.42637000      -8.48893000
O      -14.96282000       4.84772000      -7.70651000
H      -15.19109000       5.38405000      -6.95687000
H      -16.96615000       5.95392000      -9.82719000
O      -16.13500000       5.73153000     -10.26008000
H      -15.77387000       6.59074000     -10.54303000
