6
Properties=species:S:1:pos:R:3 frame=T 40=T |=T Written=T by=T MDAnalysis=T XYZWriter=T (release=T 2.4.3)=T pbc="F F F"
H       14.35807000       3.97100000      13.42978000
O       14.46914000       4.87205000      13.11655000
H       14.00705000       4.80381000      12.27749000
H       11.42448000       6.27217000      13.30455000
O       12.23759000       6.51069000      13.78189000
H       12.68172000       5.70118000      14.04036000
