6
Properties=species:S:1:pos:R:3 frame=T 43=T |=T Written=T by=T MDAnalysis=T XYZWriter=T (release=T 2.4.3)=T pbc="F F F"
H       -5.14378000     -16.94112000       1.30980000
O       -4.79877000     -16.80117000       2.18954000
H       -5.52179000     -16.35907000       2.67092000
H       -7.41620000     -15.61036000       3.73210000
O       -6.54985000     -15.98859000       3.98182000
H       -6.47820000     -15.60273000       4.85896000
