6
Properties=species:S:1:pos:R:3 frame=T 31=T |=T Written=T by=T MDAnalysis=T XYZWriter=T (release=T 2.4.3)=T pbc="F F F"
H       12.90084000      -7.72053000      -8.94672000
O       12.92811000      -6.78394000      -8.80866000
H       12.55835000      -6.71259000      -7.91787000
H       12.27723000      -9.25403000     -10.65058000
O       13.06617000      -9.28770000     -10.10884000
H       13.76511000      -9.21279000     -10.77673000
