6
Properties=species:S:1:pos:R:3 frame=T 23=T |=T Written=T by=T MDAnalysis=T XYZWriter=T (release=T 2.4.3)=T pbc="F F F"
H        1.70291000     -15.32312000     -14.91591000
O        2.07299000     -14.53387000     -14.45642000
H        2.01754000     -13.85741000     -15.16633000
H        4.36269000     -16.62749000     -14.05248000
O        3.71054000     -16.31068000     -13.42050000
H        3.20235000     -15.62091000     -13.89093000
