6
Properties=species:S:1:pos:R:3 frame=T 47=T |=T Written=T by=T MDAnalysis=T XYZWriter=T (release=T 2.4.3)=T pbc="F F F"
H       -2.17897000      -0.91081000      -2.27274000
O       -2.61823000      -1.00595000      -1.44143000
H       -2.28363000      -0.22919000      -0.91672000
H       -1.54891000       0.27337000       1.10577000
O       -1.77504000       0.76614000       0.30936000
H       -2.61907000       1.17007000       0.54062000
