6
Properties=species:S:1:pos:R:3 frame=T 36=T |=T Written=T by=T MDAnalysis=T XYZWriter=T (release=T 2.4.3)=T pbc="F F F"
H      -17.57331000       0.06771000     -13.29989000
O      -17.31096000      -0.65123000     -13.88877000
H      -18.05495000      -1.28539000     -13.74848000
H      -17.90583000       2.11918000     -11.53458000
O      -17.72486000       1.47403000     -12.20811000
H      -17.63503000       2.05765000     -12.96899000
