6
Properties=species:S:1:pos:R:3 frame=T 38=T |=T Written=T by=T MDAnalysis=T XYZWriter=T (release=T 2.4.3)=T pbc="F F F"
H       11.90672000     -14.11023000       9.81214000
O       12.88496000     -14.04839000       9.68138000
H       13.09190000     -14.90566000       9.27337000
H       15.19300000     -13.65962000       7.24385000
O       14.28717000     -13.64472000       7.01407000
H       13.82358000     -13.85367000       7.83515000
