6
Properties=species:S:1:pos:R:3 frame=T 34=T |=T Written=T by=T MDAnalysis=T XYZWriter=T (release=T 2.4.3)=T pbc="F F F"
H       13.99775000     -19.32940000     -17.25904000
O       13.77574000     -19.04293000     -18.15442000
H       13.68947000     -18.09857000     -18.10992000
H       12.16209000     -18.27065000     -16.20206000
O       12.60542000     -17.68744000     -15.56740000
H       13.42922000     -18.16913000     -15.39086000
