6
Properties=species:S:1:pos:R:3 frame=T 8=T |=T Written=T by=T MDAnalysis=T XYZWriter=T (release=T 2.4.3)=T pbc="F F F"
H       -1.48171000     -10.31644000     -13.42114000
O       -2.08445000      -9.72433000     -12.88703000
H       -2.45656000     -10.33444000     -12.19748000
H       -2.98602000     -11.97458000     -13.09307000
O       -3.40539000     -12.27414000     -12.27725000
H       -2.67049000     -12.53791000     -11.74876000
