6
Properties=species:S:1:pos:R:3 frame=T 16=T |=T Written=T by=T MDAnalysis=T XYZWriter=T (release=T 2.4.3)=T pbc="F F F"
H       13.58622000       2.34565000       3.90233000
O       12.92835000       1.64572000       3.77508000
H       12.27513000       2.12426000       3.22775000
H       10.55885000       3.79389000       2.91591000
O       10.99835000       3.10871000       2.43011000
H       10.44680000       3.10658000       1.62026000
