6
Properties=species:S:1:pos:R:3 frame=T 33=T |=T Written=T by=T MDAnalysis=T XYZWriter=T (release=T 2.4.3)=T pbc="F F F"
H      -12.45310000     -12.29123000       7.52724000
O      -11.85857000     -12.73430000       8.14035000
H      -12.26229000     -12.47819000       8.99580000
H      -13.68046000     -10.60799000       6.35769000
O      -13.82097000     -11.28005000       7.06617000
H      -14.62374000     -11.02225000       7.52299000
