6
Properties=species:S:1:pos:R:3 frame=T 44=T |=T Written=T by=T MDAnalysis=T XYZWriter=T (release=T 2.4.3)=T pbc="F F F"
H      -11.00793000      -0.28940000       9.47241000
O      -11.98529000      -0.28817000       9.51855000
H      -12.26385000       0.58408000       9.80307000
H      -13.28122000      -2.30988000       7.42453000
O      -13.44497000      -1.95015000       8.27933000
H      -12.82679000      -1.20983000       8.32164000
