6
Properties=species:S:1:pos:R:3 frame=T 20=T |=T Written=T by=T MDAnalysis=T XYZWriter=T (release=T 2.4.3)=T pbc="F F F"
H       -6.33972000      11.42406000       7.30670000
O       -6.86750000      12.07869000       6.84004000
H       -6.94523000      12.80300000       7.48748000
H      -10.08868000      11.75317000       7.91851000
O       -9.40125000      11.80468000       8.60606000
H       -8.76273000      12.38106000       8.19786000
