6
Properties=species:S:1:pos:R:3 frame=T 2=T |=T Written=T by=T MDAnalysis=T XYZWriter=T (release=T 2.4.3)=T pbc="F F F"
H       17.51329000     -18.41242000      -5.31617000
O       18.33386000     -18.90138000      -5.44778000
H       18.68413000     -18.90542000      -4.53970000
H       15.59645000     -17.40844000      -6.28107000
O       16.08927000     -17.58030000      -5.45372000
H       16.49881000     -16.70958000      -5.23687000
