6
Properties=species:S:1:pos:R:3 frame=T 5=T |=T Written=T by=T MDAnalysis=T XYZWriter=T (release=T 2.4.3)=T pbc="F F F"
H       -4.35859000       6.63974000     -18.47515000
O       -5.30844000       6.35509000     -18.45095000
H       -5.47204000       5.95260000     -19.30835000
H       -5.49845000       7.09109000     -16.88423000
O       -5.91067000       7.69002000     -16.27949000
H       -5.35153000       7.68572000     -15.50124000
