6
Properties=species:S:1:pos:R:3 frame=T 46=T |=T Written=T by=T MDAnalysis=T XYZWriter=T (release=T 2.4.3)=T pbc="F F F"
H      -11.53538000      -0.63602000     -17.92143000
O      -11.54752000      -1.54910000     -17.54232000
H      -11.80441000      -2.12089000     -18.30203000
H      -11.67797000      -2.98580000     -14.77698000
O      -12.48377000      -2.62524000     -15.14539000
H      -12.06696000      -2.26675000     -15.97112000
