6
Properties=species:S:1:pos:R:3 frame=T 12=T |=T Written=T by=T MDAnalysis=T XYZWriter=T (release=T 2.4.3)=T pbc="F F F"
H       11.67814000       3.76590000      10.97892000
O       12.08052000       3.13413000      11.59342000
H       13.00696000       3.34257000      11.63350000
H       11.20077000       5.76993000      13.34972000
O       10.91031000       4.90189000      13.55967000
H       11.09609000       4.39327000      12.77372000
