6
Properties=species:S:1:pos:R:3 frame=T 28=T |=T Written=T by=T MDAnalysis=T XYZWriter=T (release=T 2.4.3)=T pbc="F F F"
H       16.51527000     -15.40161000      14.32826000
O       16.51464000     -16.35316000      14.11027000
H       15.58268000     -16.45312000      13.90307000
H       17.26270000     -17.26409000      15.59283000
O       17.50884000     -17.45143000      16.49564000
H       18.15592000     -18.12305000      16.33055000
