6
Properties=species:S:1:pos:R:3 frame=T 32=T |=T Written=T by=T MDAnalysis=T XYZWriter=T (release=T 2.4.3)=T pbc="F F F"
H      -16.57447000       7.42922000      17.69247000
O      -16.48783000       6.88926000      16.91821000
H      -16.29668000       6.00225000      17.26910000
H      -14.87396000       7.21177000      16.33605000
O      -14.12517000       6.90558000      15.81898000
H      -14.01145000       7.54373000      15.06692000
