6
Properties=species:S:1:pos:R:3 frame=T 15=T |=T Written=T by=T MDAnalysis=T XYZWriter=T (release=T 2.4.3)=T pbc="F F F"
H      -17.27769000       7.47254000      -9.63077000
O      -17.65276000       8.36507000      -9.61052000
H      -16.94571000       8.82316000      -9.16724000
H      -16.80994000       6.18257000     -11.80808000
O      -16.59139000       7.07912000     -12.08716000
H      -17.34432000       7.61571000     -11.81869000
