6
Properties=species:S:1:pos:R:3 frame=T 14=T |=T Written=T by=T MDAnalysis=T XYZWriter=T (release=T 2.4.3)=T pbc="F F F"
H      -12.25758000       7.64618000       1.84785000
O      -12.84413000       7.88978000       2.56114000
H      -12.26634000       8.30356000       3.21377000
H      -12.61517000       9.57836000       5.33633000
O      -12.02453000       9.08269000       4.78135000
H      -11.64224000       8.44068000       5.39151000
