6
Properties=species:S:1:pos:R:3 frame=T 45=T |=T Written=T by=T MDAnalysis=T XYZWriter=T (release=T 2.4.3)=T pbc="F F F"
H        6.33871000       8.27166000       3.33521000
O        5.40382000       8.21668000       3.57793000
H        5.33728000       8.64231000       4.43493000
H        3.30040000       7.32435000       1.44850000
O        3.88005000       6.77673000       2.00463000
H        4.51645000       7.38363000       2.30272000
