6
Properties=species:S:1:pos:R:3 frame=T 6=T |=T Written=T by=T MDAnalysis=T XYZWriter=T (release=T 2.4.3)=T pbc="F F F"
H       -9.31329000      -1.96242000       2.49731000
O       -8.86961000      -2.72018000       2.90855000
H       -9.57095000      -3.34569000       3.13678000
H      -10.62755000      -5.56421000       3.59495000
O      -10.46960000      -4.59428000       3.55463000
H      -11.32524000      -4.28377000       3.21399000
