6
Properties=species:S:1:pos:R:3 frame=T 28=T |=T Written=T by=T MDAnalysis=T XYZWriter=T (release=T 2.4.3)=T pbc="F F F"
H        2.39450000     -13.99108000      15.09706000
O        1.84131000     -13.33367000      15.56774000
H        1.86810000     -12.57094000      14.97003000
H        1.48756000     -12.76595000      17.23813000
O        1.29396000     -12.57466000      18.16795000
H        0.85506000     -11.67134000      18.11979000
