6
Properties=species:S:1:pos:R:3 frame=T 43=T |=T Written=T by=T MDAnalysis=T XYZWriter=T (release=T 2.4.3)=T pbc="F F F"
H        0.55478000      -5.39008000      -2.11655000
O        0.60055000      -6.27260000      -2.45649000
H        0.22558000      -6.18783000      -3.32140000
H        3.51178000      -5.54620000      -0.71970000
O        2.78109000      -6.17732000      -0.85460000
H        2.38085000      -5.92200000      -1.70963000
