6
Properties=species:S:1:pos:R:3 frame=T 26=T |=T Written=T by=T MDAnalysis=T XYZWriter=T (release=T 2.4.3)=T pbc="F F F"
H      -15.75286000       2.53350000       6.43949000
O      -15.10869000       3.24049000       6.40025000
H      -15.62436000       4.02825000       6.51422000
H      -17.63933000       1.25713000       6.81860000
O      -16.81764000       0.77624000       6.75959000
H      -16.87741000       0.38837000       5.86679000
