6
Properties=species:S:1:pos:R:3 frame=T 49=T |=T Written=T by=T MDAnalysis=T XYZWriter=T (release=T 2.4.3)=T pbc="F F F"
H       -6.03100000     -16.97331000      13.44051000
O       -5.32210000     -16.87341000      14.11246000
H       -4.80804000     -16.07041000      13.85105000
H       -3.15399000     -14.14921000      13.30969000
O       -3.43434000     -15.06629000      13.37701000
H       -2.70338000     -15.49805000      13.83565000
