6
Properties=species:S:1:pos:R:3 frame=T 2=T |=T Written=T by=T MDAnalysis=T XYZWriter=T (release=T 2.4.3)=T pbc="F F F"
H       -3.93864000       2.24995000       8.90431000
O       -4.67449000       1.67394000       8.65618000
H       -4.31875000       0.93761000       8.12023000
H       -7.25236000       2.63081000       6.89417000
O       -6.67169000       1.88479000       7.09114000
H       -6.10931000       2.20879000       7.80418000
