6
Properties=species:S:1:pos:R:3 frame=T 18=T |=T Written=T by=T MDAnalysis=T XYZWriter=T (release=T 2.4.3)=T pbc="F F F"
H      -19.16950000       6.02145000      18.68574000
O      -18.53967000       5.62168000      18.09501000
H      -18.64280000       6.20508000      17.32424000
H      -17.77685000       7.49095000      15.31460000
O      -18.40918000       6.80442000      15.42407000
H      -19.19593000       7.37758000      15.48442000
