6
Properties=species:S:1:pos:R:3 frame=T 26=T |=T Written=T by=T MDAnalysis=T XYZWriter=T (release=T 2.4.3)=T pbc="F F F"
H       -8.82403000     -14.96387000      -5.71380000
O       -7.93479000     -14.76526000      -6.07263000
H       -7.42609000     -15.56623000      -5.95789000
H       -8.51620000     -13.99252000      -7.42272000
O       -8.94993000     -13.93734000      -8.28850000
H       -8.94414000     -12.99897000      -8.50262000
