6
Properties=species:S:1:pos:R:3 frame=T 49=T |=T Written=T by=T MDAnalysis=T XYZWriter=T (release=T 2.4.3)=T pbc="F F F"
H      -11.01849000      13.39850000     -11.71370000
O      -11.39260000      14.24965000     -11.58246000
H      -10.75906000      14.63065000     -10.93738000
H      -10.68886000      10.90337000     -12.01006000
O      -10.33295000      11.64829000     -11.49964000
H      -10.03987000      11.26912000     -10.68641000
