6
Properties=species:S:1:pos:R:3 frame=T 7=T |=T Written=T by=T MDAnalysis=T XYZWriter=T (release=T 2.4.3)=T pbc="F F F"
H       -9.93963000      17.98517000      -8.83863000
O      -10.85034000      17.63958000      -8.99853000
H      -11.31351000      18.03852000      -8.21117000
H      -12.37517000      17.70538000      -9.89768000
O      -13.31994000      17.60951000     -10.06634000
H      -13.65984000      17.10249000      -9.32153000
