6
Properties=species:S:1:pos:R:3 frame=T 46=T |=T Written=T by=T MDAnalysis=T XYZWriter=T (release=T 2.4.3)=T pbc="F F F"
H       12.66540000      -0.99017000       6.88431000
O       11.99776000      -1.55076000       7.35455000
H       12.14198000      -2.38350000       6.89969000
H       12.72868000       0.59852000       5.53980000
O       13.65131000       0.57714000       5.81928000
H       13.75227000       1.36452000       6.33876000
