6
Properties=species:S:1:pos:R:3 frame=T 16=T |=T Written=T by=T MDAnalysis=T XYZWriter=T (release=T 2.4.3)=T pbc="F F F"
H       -2.79060000      -9.81560000     -16.42319000
O       -3.53800000     -10.43223000     -16.41695000
H       -3.92771000     -10.22278000     -17.27891000
H       -5.37756000      -9.48300000     -18.81955000
O       -5.30507000     -10.30705000     -18.33670000
H       -5.81188000     -10.96321000     -18.87724000
