6
Properties=species:S:1:pos:R:3 frame=T 4=T |=T Written=T by=T MDAnalysis=T XYZWriter=T (release=T 2.4.3)=T pbc="F F F"
H       -7.63963000      -6.82157000      11.68888000
O       -8.49542000      -6.74775000      12.14413000
H       -8.34435000      -7.06097000      13.04840000
H      -10.96341000      -5.66162000      12.92085000
O      -10.47289000      -4.97555000      12.45243000
H       -9.58538000      -5.34190000      12.26217000
