6
Properties=species:S:1:pos:R:3 frame=T 30=T |=T Written=T by=T MDAnalysis=T XYZWriter=T (release=T 2.4.3)=T pbc="F F F"
H      -16.30954000      17.95297000     -18.70861000
O      -16.82225000      17.95246000     -17.87754000
H      -17.19647000      17.06122000     -17.75118000
H      -18.51831000      15.47722000     -17.22394000
O      -17.99235000      16.02643000     -16.64469000
H      -18.66080000      16.24919000     -15.98623000
