6
Properties=species:S:1:pos:R:3 frame=T 50=T |=T Written=T by=T MDAnalysis=T XYZWriter=T (release=T 2.4.3)=T pbc="F F F"
H       -8.72932000      15.34115000       6.07936000
O       -8.87143000      16.25256000       6.38542000
H       -8.08134000      16.44526000       6.87408000
H      -10.05097000      17.22710000       5.42780000
O      -10.26907000      17.75968000       4.64886000
H      -10.43932000      18.65639000       5.07063000
