6
Properties=species:S:1:pos:R:3 frame=T 40=T |=T Written=T by=T MDAnalysis=T XYZWriter=T (release=T 2.4.3)=T pbc="F F F"
H      -13.50791000      -4.27175000      17.61184000
O      -13.10870000      -3.45711000      17.91924000
H      -12.27010000      -3.77853000      18.26342000
H      -13.77991000      -1.83393000      15.35671000
O      -12.84031000      -1.73206000      15.58977000
H      -12.73483000      -2.12215000      16.48195000
