6
Properties=species:S:1:pos:R:3 frame=T 35=T |=T Written=T by=T MDAnalysis=T XYZWriter=T (release=T 2.4.3)=T pbc="F F F"
H        4.78792000      14.29637000     -15.28694000
O        3.98009000      13.90986000     -14.93269000
H        3.57785000      14.63983000     -14.45466000
H        2.06364000      16.83814000     -16.26462000
O        2.52191000      16.02881000     -16.53127000
H        2.71191000      15.55824000     -15.70573000
