6
Properties=species:S:1:pos:R:3 frame=T 38=T |=T Written=T by=T MDAnalysis=T XYZWriter=T (release=T 2.4.3)=T pbc="F F F"
H       16.46592000      11.11750000      15.52434000
O       16.93827000      11.69772000      14.91087000
H       17.09240000      12.46359000      15.47250000
H       14.95701000      10.32436000      17.01524000
O       15.43692000      11.13952000      17.04214000
H       15.03851000      11.64660000      17.75106000
