6
Properties=species:S:1:pos:R:3 frame=T 13=T |=T Written=T by=T MDAnalysis=T XYZWriter=T (release=T 2.4.3)=T pbc="F F F"
H       -3.71168000      15.76981000      10.45456000
O       -4.30922000      15.57134000      11.17692000
H       -3.70675000      15.22089000      11.84269000
H       -5.45267000      14.50143000      10.71136000
O       -5.86857000      13.60100000      10.74424000
H       -6.82814000      13.73046000      10.59904000
