6
Properties=species:S:1:pos:R:3 frame=T 19=T |=T Written=T by=T MDAnalysis=T XYZWriter=T (release=T 2.4.3)=T pbc="F F F"
H       -7.63055000      -7.81159000      -4.15030000
O       -7.00577000      -7.14582000      -4.43007000
H       -6.26665000      -7.68142000      -4.80475000
H       -8.71026000      -8.41287000      -2.65253000
O       -9.14454000      -8.67387000      -3.48709000
H      -10.10662000      -8.64018000      -3.27341000
