6
Properties=species:S:1:pos:R:3 frame=T 50=T |=T Written=T by=T MDAnalysis=T XYZWriter=T (release=T 2.4.3)=T pbc="F F F"
H        8.03696000      -7.15414000      14.20366000
O        8.04190000      -7.16870000      13.25600000
H        8.53649000      -6.38545000      13.04618000
H       10.13049000      -4.29872000      12.90651000
O        9.99795000      -5.16751000      13.26613000
H       10.56405000      -5.09496000      14.05576000
