6
Properties=species:S:1:pos:R:3 frame=T 32=T |=T Written=T by=T MDAnalysis=T XYZWriter=T (release=T 2.4.3)=T pbc="F F F"
H       -0.74441000     -15.00374000      15.78227000
O       -1.17521000     -14.68320000      16.57159000
H       -1.14932000     -15.45883000      17.16260000
H        0.16825000     -13.61334000      14.35301000
O        0.74944000     -14.34338000      14.60046000
H        0.92549000     -14.72446000      13.71942000
