6
Properties=species:S:1:pos:R:3 frame=T 16=T |=T Written=T by=T MDAnalysis=T XYZWriter=T (release=T 2.4.3)=T pbc="F F F"
H      -16.74323000      14.59689000      -2.38040000
O      -16.61092000      14.53843000      -1.41305000
H      -15.81873000      13.99403000      -1.33007000
H      -14.24469000      13.01722000       0.09560000
O      -14.46100000      13.98709000       0.14096000
H      -14.86559000      14.12809000       0.99920000
