6
Properties=species:S:1:pos:R:3 frame=T 38=T |=T Written=T by=T MDAnalysis=T XYZWriter=T (release=T 2.4.3)=T pbc="F F F"
H       -9.29898000      -0.62706000     -19.04081000
O       -9.59163000      -1.20596000     -18.34405000
H      -10.45579000      -1.51827000     -18.57682000
H       -8.05568000      -0.79922000     -15.64053000
O       -8.88073000      -0.28143000     -15.76993000
H       -9.06064000      -0.36883000     -16.69563000
