6
Properties=species:S:1:pos:R:3 frame=T 37=T |=T Written=T by=T MDAnalysis=T XYZWriter=T (release=T 2.4.3)=T pbc="F F F"
H       -0.49132000      14.44353000      -2.03081000
O       -0.26037000      14.58220000      -2.97052000
H       -0.51555000      15.51914000      -3.08121000
H       -0.45561000      14.78658000       0.37585000
O       -0.98235000      14.92081000      -0.41457000
H       -1.76887000      15.45259000      -0.13129000
