6
Properties=species:S:1:pos:R:3 frame=T 38=T |=T Written=T by=T MDAnalysis=T XYZWriter=T (release=T 2.4.3)=T pbc="F F F"
H       -7.03081000      -9.11556000      18.92102000
O       -7.42599000      -8.76812000      18.12355000
H       -7.14354000      -9.44112000      17.46205000
H       -6.76381000      -6.93761000      17.98260000
O       -6.18637000      -6.15472000      18.08531000
H       -5.49001000      -6.49849000      18.64921000
