6
Properties=species:S:1:pos:R:3 frame=T 44=T |=T Written=T by=T MDAnalysis=T XYZWriter=T (release=T 2.4.3)=T pbc="F F F"
H       -3.34093000      -8.62702000     -10.14946000
O       -2.97321000      -8.85339000     -11.01289000
H       -2.43027000      -8.06544000     -11.13671000
H       -2.64733000     -10.50538000     -10.18237000
O       -2.97901000     -11.17319000      -9.56535000
H       -2.30997000     -11.86117000      -9.57005000
