6
Properties=species:S:1:pos:R:3 frame=T 23=T |=T Written=T by=T MDAnalysis=T XYZWriter=T (release=T 2.4.3)=T pbc="F F F"
H       -4.39137000       6.63260000     -11.26756000
O       -5.18340000       7.12588000     -11.04557000
H       -5.32938000       6.85188000     -10.12736000
H       -5.25388000       9.44899000     -13.16884000
O       -4.65175000       8.72382000     -13.32851000
H       -4.65527000       8.34700000     -12.42512000
