6
Properties=species:S:1:pos:R:3 frame=T 31=T |=T Written=T by=T MDAnalysis=T XYZWriter=T (release=T 2.4.3)=T pbc="F F F"
H        3.81978000       8.36440000     -15.53950000
O        3.70876000       8.92159000     -14.75968000
H        4.40314000       9.56748000     -14.85795000
H        2.65174000       7.99581000     -17.55146000
O        3.12388000       7.17176000     -17.64515000
H        3.36320000       7.10480000     -18.58697000
