6
Properties=species:S:1:pos:R:3 frame=T 35=T |=T Written=T by=T MDAnalysis=T XYZWriter=T (release=T 2.4.3)=T pbc="F F F"
H       -3.59243000      -0.40765000      14.90588000
O       -3.86452000      -1.19632000      14.45539000
H       -3.27322000      -1.20748000      13.68134000
H       -1.52246000      -2.30773000      14.28788000
O       -1.54826000      -2.55621000      15.21327000
H       -2.44397000      -2.31186000      15.51100000
