6
Properties=species:S:1:pos:R:3 frame=T 25=T |=T Written=T by=T MDAnalysis=T XYZWriter=T (release=T 2.4.3)=T pbc="F F F"
H        9.34617000       0.45047000      18.70369000
O        9.94083000       0.44602000      17.96190000
H       10.48417000       1.24719000      18.06132000
H       10.10153000       3.10963000      18.91840000
O        9.18036000       3.20208000      18.64216000
H        9.25986000       2.98105000      17.69589000
