6
Properties=species:S:1:pos:R:3 frame=T 2=T |=T Written=T by=T MDAnalysis=T XYZWriter=T (release=T 2.4.3)=T pbc="F F F"
H      -14.07582000      -5.80905000      -2.66395000
O      -13.57467000      -5.00669000      -2.72468000
H      -14.24437000      -4.34634000      -2.91374000
H      -15.00927000      -5.94249000      -0.20870000
O      -15.10394000      -5.02512000      -0.48649000
H      -14.51375000      -4.94493000      -1.24976000
