6
Properties=species:S:1:pos:R:3 frame=T 26=T |=T Written=T by=T MDAnalysis=T XYZWriter=T (release=T 2.4.3)=T pbc="F F F"
H       13.60060000       3.72668000      15.56780000
O       14.55386000       3.74285000      15.33892000
H       14.57005000       3.88482000      14.37544000
H       15.48249000       3.55049000      18.40564000
O       14.79649000       3.07893000      17.92218000
H       14.98886000       3.19714000      16.95913000
