6
Properties=species:S:1:pos:R:3 frame=T 54=T |=T Written=T by=T MDAnalysis=T XYZWriter=T (release=T 2.4.3)=T pbc="F F F"
H       -5.87838000       9.52634000       7.50601000
O       -5.68750000       9.37263000       6.55227000
H       -5.97503000       8.47344000       6.40100000
H       -4.24009000      12.23114000       6.37975000
O       -3.95826000      11.33343000       6.34058000
H       -4.80555000      10.86755000       6.41537000
