6
Properties=species:S:1:pos:R:3 frame=T 43=T |=T Written=T by=T MDAnalysis=T XYZWriter=T (release=T 2.4.3)=T pbc="F F F"
H       11.31471000     -10.28997000      16.26717000
O       10.45424000     -10.65155000      16.54720000
H       10.55960000     -11.61885000      16.52044000
H       13.35987000      -9.44840000      17.55258000
O       12.95642000      -9.76255000      16.72943000
H       13.71347000      -9.96892000      16.16994000
