6
Properties=species:S:1:pos:R:3 frame=T 49=T |=T Written=T by=T MDAnalysis=T XYZWriter=T (release=T 2.4.3)=T pbc="F F F"
H        1.31689000       0.52387000       2.44970000
O        0.79231000       0.17420000       3.16191000
H        0.78265000       0.96155000       3.73746000
H        2.81197000       1.93883000       0.90252000
O        2.12690000       2.11660000       1.58033000
H        2.50706000       2.73430000       2.19484000
