6
Properties=species:S:1:pos:R:3 frame=T 23=T |=T Written=T by=T MDAnalysis=T XYZWriter=T (release=T 2.4.3)=T pbc="F F F"
H        1.01210000      -1.37772000      16.19218000
O        1.47059000      -1.96347000      16.76940000
H        0.76631000      -2.43942000      17.22345000
H        2.22845000      -2.61193000      19.14138000
O        1.99731000      -3.57568000      19.17064000
H        2.03769000      -3.87430000      18.24663000
