6
Properties=species:S:1:pos:R:3 frame=T 8=T |=T Written=T by=T MDAnalysis=T XYZWriter=T (release=T 2.4.3)=T pbc="F F F"
H       17.81493000     -13.50276000      14.55687000
O       18.11657000     -14.15351000      13.93977000
H       17.30838000     -14.63532000      13.69665000
H       18.89723000     -15.61025000      13.05882000
O       18.97217000     -16.41133000      12.54369000
H       18.20709000     -16.94407000      12.84118000
