6
Properties=species:S:1:pos:R:3 frame=T 54=T |=T Written=T by=T MDAnalysis=T XYZWriter=T (release=T 2.4.3)=T pbc="F F F"
H        1.31555000     -17.02845000       5.12384000
O        1.22821000     -17.86069000       4.64693000
H        2.05834000     -17.90766000       4.12214000
H       -0.45679000     -18.07431000       4.47250000
O       -1.22404000     -18.33685000       3.95807000
H       -1.97701000     -18.15801000       4.52191000
