6
Properties=species:S:1:pos:R:3 frame=T 28=T |=T Written=T by=T MDAnalysis=T XYZWriter=T (release=T 2.4.3)=T pbc="F F F"
H        8.74552000       1.01666000      -5.07781000
O        9.35478000       0.53557000      -4.46744000
H        9.66476000       1.21184000      -3.89711000
H        6.92240000       0.68892000      -6.85591000
O        7.28543000       1.28296000      -6.22255000
H        6.95088000       0.93887000      -5.36654000
