6
Properties=species:S:1:pos:R:3 frame=T 25=T |=T Written=T by=T MDAnalysis=T XYZWriter=T (release=T 2.4.3)=T pbc="F F F"
H        8.52766000       8.66301000      14.98527000
O        7.94045000       7.99328000      15.42461000
H        7.08742000       8.25273000      15.07639000
H        9.62269000      10.50973000      14.04731000
O        9.10743000      10.22126000      14.83849000
H        9.77696000      10.29439000      15.56814000
