6
Properties=species:S:1:pos:R:3 frame=T 14=T |=T Written=T by=T MDAnalysis=T XYZWriter=T (release=T 2.4.3)=T pbc="F F F"
H      -16.97653000       6.65857000      -5.79432000
O      -16.34584000       6.98300000      -5.10737000
H      -16.85289000       7.67997000      -4.64544000
H      -16.03587000       9.45984000      -3.15064000
O      -16.65157000       8.76498000      -2.99745000
H      -17.36888000       9.00706000      -3.63139000
