6
Properties=species:S:1:pos:R:3 frame=T 17=T |=T Written=T by=T MDAnalysis=T XYZWriter=T (release=T 2.4.3)=T pbc="F F F"
H       16.41686000     -11.01588000      -2.99227000
O       17.12017000     -10.77638000      -2.37208000
H       17.78853000     -11.47380000      -2.49922000
H       18.43445000     -13.56292000      -2.32406000
O       19.20891000     -12.93124000      -2.36129000
H       19.44433000     -12.82895000      -3.28901000
