6
Properties=species:S:1:pos:R:3 frame=T 30=T |=T Written=T by=T MDAnalysis=T XYZWriter=T (release=T 2.4.3)=T pbc="F F F"
H       15.70425000     -10.74162000      15.41294000
O       14.79399000     -10.88131000      15.07607000
H       14.85515000     -10.56288000      14.15186000
H       13.48171000      -7.83566000      14.16764000
O       13.49920000      -8.73109000      13.74595000
H       13.69700000      -9.32301000      14.45234000
