6
Properties=species:S:1:pos:R:3 frame=T 1=T |=T Written=T by=T MDAnalysis=T XYZWriter=T (release=T 2.4.3)=T pbc="F F F"
H      -19.36329000      -4.15155000     -13.17231000
O      -18.43740000      -3.79544000     -13.24360000
H      -18.37065000      -3.44855000     -14.15049000
H      -16.02437000      -2.01954000     -13.94047000
O      -16.68996000      -1.52800000     -13.43237000
H      -17.36153000      -2.22258000     -13.22833000
