6
Properties=species:S:1:pos:R:3 frame=T 32=T |=T Written=T by=T MDAnalysis=T XYZWriter=T (release=T 2.4.3)=T pbc="F F F"
H       10.13878000      -2.57024000     -11.57473000
O       10.27815000      -3.35522000     -11.04125000
H       10.90924000      -3.87920000     -11.58940000
H        8.34467000      -5.59802000     -12.44499000
O        8.13781000      -4.70018000     -12.23208000
H        8.92443000      -4.33602000     -11.78239000
