6
Properties=species:S:1:pos:R:3 frame=T 0=T |=T Written=T by=T MDAnalysis=T XYZWriter=T (release=T 2.4.3)=T pbc="F F F"
H       -9.97704000     -15.23147000     -17.02179000
O      -10.64812000     -14.95021000     -16.39721000
H      -10.43849000     -15.39846000     -15.57871000
H       -7.97341000     -15.83188000     -18.21091000
O       -8.60365000     -16.17339000     -17.56662000
H       -8.07076000     -16.66053000     -16.93405000
