6
Properties=species:S:1:pos:R:3 frame=T 6=T |=T Written=T by=T MDAnalysis=T XYZWriter=T (release=T 2.4.3)=T pbc="F F F"
H       13.52677000     -12.68016000       6.28754000
O       13.50384000     -12.31616000       5.39562000
H       12.73290000     -11.77049000       5.52001000
H       12.07882000     -14.53725000       3.95927000
O       13.04200000     -14.66136000       3.93615000
H       13.39275000     -13.89162000       4.40258000
