6
Properties=species:S:1:pos:R:3 frame=T 40=T |=T Written=T by=T MDAnalysis=T XYZWriter=T (release=T 2.4.3)=T pbc="F F F"
H       -5.41982000     -17.04819000     -13.39664000
O       -5.17456000     -16.36238000     -13.99414000
H       -5.99275000     -16.23684000     -14.53637000
H       -8.39831000     -17.08573000     -15.60153000
O       -7.44299000     -17.16115000     -15.42677000
H       -7.39529000     -17.93089000     -14.85437000
