6
Properties=species:S:1:pos:R:3 frame=T 13=T |=T Written=T by=T MDAnalysis=T XYZWriter=T (release=T 2.4.3)=T pbc="F F F"
H        9.19929000      -6.28659000     -18.52325000
O        9.58590000      -6.65019000     -17.71383000
H        9.06142000      -6.32011000     -16.98727000
H       10.90431000      -3.91141000     -16.41739000
O       11.44811000      -4.52150000     -16.95700000
H       10.84375000      -5.13767000     -17.34690000
