6
Properties=species:S:1:pos:R:3 frame=T 15=T |=T Written=T by=T MDAnalysis=T XYZWriter=T (release=T 2.4.3)=T pbc="F F F"
H       -7.64401000     -14.81690000     -13.15786000
O       -7.98264000     -15.06065000     -12.27723000
H       -7.23227000     -14.89935000     -11.72185000
H       -9.29629000     -15.78683000     -13.23093000
O       -9.83155000     -16.03473000     -13.99884000
H      -10.68122000     -15.63101000     -13.80610000
