6
Properties=species:S:1:pos:R:3 frame=T 16=T |=T Written=T by=T MDAnalysis=T XYZWriter=T (release=T 2.4.3)=T pbc="F F F"
H       12.84910000      -9.58040000      -9.39373000
O       13.60692000      -9.88009000      -9.90807000
H       14.35026000      -9.52658000      -9.42535000
H       13.99350000     -10.14830000     -11.65570000
O       14.14514000     -10.34790000     -12.59534000
H       14.90145000     -10.94306000     -12.58312000
