6
Properties=species:S:1:pos:R:3 frame=T 6=T |=T Written=T by=T MDAnalysis=T XYZWriter=T (release=T 2.4.3)=T pbc="F F F"
H        4.66925000       4.13331000      14.27875000
O        4.23732000       4.21236000      15.15458000
H        4.10435000       5.17422000      15.26418000
H        2.55214000       7.22329000      14.55359000
O        3.33689000       7.01436000      15.05642000
H        3.01122000       7.00548000      15.96982000
