6
Properties=species:S:1:pos:R:3 frame=T 43=T |=T Written=T by=T MDAnalysis=T XYZWriter=T (release=T 2.4.3)=T pbc="F F F"
H        2.27152000     -16.08050000      12.74156000
O        2.66299000     -16.63596000      13.43405000
H        1.89572000     -17.11995000      13.83919000
H        3.82098000     -15.44492000      14.38964000
O        4.51360000     -14.99290000      14.86912000
H        4.89225000     -15.73144000      15.38034000
