6
Properties=species:S:1:pos:R:3 frame=T 3=T |=T Written=T by=T MDAnalysis=T XYZWriter=T (release=T 2.4.3)=T pbc="F F F"
H      -16.17451000      12.52087000      18.41777000
O      -15.58418000      13.17432000      18.02836000
H      -16.02776000      14.00581000      18.21521000
H      -16.86540000      16.30693000      17.40682000
O      -16.66851000      15.81454000      18.21900000
H      -17.48277000      15.72727000      18.74343000
