6
Properties=species:S:1:pos:R:3 frame=T 38=T |=T Written=T by=T MDAnalysis=T XYZWriter=T (release=T 2.4.3)=T pbc="F F F"
H      -11.66356000       9.11244000      -6.98752000
O      -11.71235000       8.13710000      -6.98487000
H      -12.66239000       7.93933000      -7.04799000
H      -12.36832000      10.89131000      -6.17253000
O      -11.61543000      10.89106000      -6.78306000
H      -11.96858000      11.41637000      -7.53264000
