6
Properties=species:S:1:pos:R:3 frame=T 36=T |=T Written=T by=T MDAnalysis=T XYZWriter=T (release=T 2.4.3)=T pbc="F F F"
H      -10.91520000     -13.93322000       7.14176000
O      -10.16532000     -13.30822000       7.02222000
H      -10.62221000     -12.57671000       6.60159000
H      -10.70753000     -12.34264000       8.63132000
O      -11.39672000     -11.86249000       9.12807000
H      -11.00159000     -11.81543000      10.00407000
