6
Properties=species:S:1:pos:R:3 frame=T 0=T |=T Written=T by=T MDAnalysis=T XYZWriter=T (release=T 2.4.3)=T pbc="F F F"
H      -16.10017000       9.44436000      19.70917000
O      -16.47598000       9.39922000      18.82737000
H      -15.71300000       9.39363000      18.23051000
H      -15.24809000       9.33137000      16.43239000
O      -14.47900000       9.40158000      17.03926000
H      -13.79554000       8.92461000      16.53452000
