6
Properties=species:S:1:pos:R:3 frame=T 46=T |=T Written=T by=T MDAnalysis=T XYZWriter=T (release=T 2.4.3)=T pbc="F F F"
H      -14.81544000     -11.30713000      -9.20643000
O      -15.59976000     -10.88077000      -8.82639000
H      -15.63237000     -11.20650000      -7.90526000
H      -15.75082000      -8.07203000      -9.29650000
O      -16.64214000      -8.31721000      -9.03633000
H      -16.52341000      -9.21174000      -8.72476000
