6
Properties=species:S:1:pos:R:3 frame=T 52=T |=T Written=T by=T MDAnalysis=T XYZWriter=T (release=T 2.4.3)=T pbc="F F F"
H        9.59191000      -1.03179000      -5.48555000
O        9.87156000      -0.28897000      -4.95163000
H       10.75616000      -0.53837000      -4.66200000
H        9.00212000       0.21942000      -1.89582000
O        9.23922000       0.67542000      -2.68418000
H        9.33019000       0.01474000      -3.37493000
