6
Properties=species:S:1:pos:R:3 frame=T 40=T |=T Written=T by=T MDAnalysis=T XYZWriter=T (release=T 2.4.3)=T pbc="F F F"
H        1.79505000      -7.67582000       6.71421000
O        2.45876000      -6.99048000       6.53634000
H        1.89741000      -6.16776000       6.46438000
H        1.43201000     -10.11149000       6.22892000
O        2.05831000      -9.78030000       6.91920000
H        1.46021000      -9.62021000       7.70352000
