6
Properties=species:S:1:pos:R:3 frame=T 32=T |=T Written=T by=T MDAnalysis=T XYZWriter=T (release=T 2.4.3)=T pbc="F F F"
H        3.34434000     -12.96546000      -5.84619000
O        3.95720000     -12.42376000      -6.31490000
H        3.38409000     -11.77471000      -6.67848000
H        5.91634000     -14.31844000      -8.03346000
O        5.08234000     -14.38226000      -7.55445000
H        5.10182000     -13.62957000      -6.99839000
