6
Properties=species:S:1:pos:R:3 frame=T 3=T |=T Written=T by=T MDAnalysis=T XYZWriter=T (release=T 2.4.3)=T pbc="F F F"
H       -3.93120000      18.19160000     -11.74337000
O       -4.52441000      18.41718000     -12.45990000
H       -5.06693000      17.61784000     -12.51459000
H       -2.61995000      19.04046000     -13.09763000
O       -2.29206000      19.23374000     -14.00064000
H       -2.26657000      18.32202000     -14.37850000
