6
Properties=species:S:1:pos:R:3 frame=T 32=T |=T Written=T by=T MDAnalysis=T XYZWriter=T (release=T 2.4.3)=T pbc="F F F"
H      -17.26816000      -9.73673000      14.80044000
O      -17.12845000      -9.20566000      13.99664000
H      -17.42218000      -9.81491000      13.32132000
H      -15.97900000      -6.74858000      12.49069000
O      -15.66623000      -7.01063000      13.35065000
H      -16.01057000      -7.89320000      13.45202000
