6
Properties=species:S:1:pos:R:3 frame=T 13=T |=T Written=T by=T MDAnalysis=T XYZWriter=T (release=T 2.4.3)=T pbc="F F F"
H      -13.98153000       0.58393000      -1.21003000
O      -14.18908000       0.23573000      -0.32188000
H      -13.30328000       0.03288000       0.04527000
H      -13.67282000       1.34545000      -3.35406000
O      -13.58570000       1.86332000      -2.50581000
H      -12.61002000       1.86248000      -2.31795000
