6
Properties=species:S:1:pos:R:3 frame=T 7=T |=T Written=T by=T MDAnalysis=T XYZWriter=T (release=T 2.4.3)=T pbc="F F F"
H       -7.77230000      -3.78391000      -9.49138000
O       -7.38188000      -3.99502000      -8.63304000
H       -7.34381000      -4.95752000      -8.56056000
H       -5.70949000      -3.59256000      -8.88025000
O       -4.79355000      -3.86343000      -8.74768000
H       -4.35862000      -3.14134000      -8.25071000
