6
Properties=species:S:1:pos:R:3 frame=T 53=T |=T Written=T by=T MDAnalysis=T XYZWriter=T (release=T 2.4.3)=T pbc="F F F"
H       14.95241000      -8.50085000       6.29632000
O       14.70378000      -8.62949000       5.36082000
H       15.25608000      -7.97246000       4.95103000
H       11.51985000      -8.60856000       4.53858000
O       11.96000000      -8.39391000       5.33586000
H       12.87900000      -8.64758000       5.16268000
