6
Properties=species:S:1:pos:R:3 frame=T 49=T |=T Written=T by=T MDAnalysis=T XYZWriter=T (release=T 2.4.3)=T pbc="F F F"
H        0.24932000      16.93227000       7.70397000
O        0.68893000      16.34288000       7.07580000
H        0.15368000      15.53799000       7.06725000
H        0.29610000      16.26374000      10.66701000
O       -0.22851000      17.05209000      10.48819000
H       -1.13212000      16.80778000      10.73634000
