6
Properties=species:S:1:pos:R:3 frame=T 13=T |=T Written=T by=T MDAnalysis=T XYZWriter=T (release=T 2.4.3)=T pbc="F F F"
H      -18.80021000      -2.87585000     -17.74432000
O      -18.94353000      -3.83050000     -17.79466000
H      -18.06273000      -4.21149000     -17.98359000
H      -15.77219000      -3.64996000     -14.72263000
O      -15.97994000      -3.83441000     -15.64645000
H      -16.14661000      -2.93579000     -16.00805000
