6
Properties=species:S:1:pos:R:3 frame=T 21=T |=T Written=T by=T MDAnalysis=T XYZWriter=T (release=T 2.4.3)=T pbc="F F F"
H        9.63022000      18.90843000       7.67678000
O        8.72209000      18.84224000       7.46087000
H        8.28553000      18.53508000       8.29797000
H       13.08833000      18.25574000       8.91053000
O       12.20605000      18.37677000       8.51260000
H       12.06127000      17.53196000       8.05833000
