6
Properties=species:S:1:pos:R:3 frame=T 37=T |=T Written=T by=T MDAnalysis=T XYZWriter=T (release=T 2.4.3)=T pbc="F F F"
H       -3.09016000     -18.27100000      13.75229000
O       -3.26267000     -18.55294000      14.67080000
H       -3.72826000     -17.80732000      15.07406000
H       -1.49993000     -18.48901000      17.65921000
O       -1.22944000     -17.64127000      17.34562000
H       -1.49847000     -17.69345000      16.42966000
