6
Properties=species:S:1:pos:R:3 frame=T 53=T |=T Written=T by=T MDAnalysis=T XYZWriter=T (release=T 2.4.3)=T pbc="F F F"
H       -2.79949000      -4.69919000     -12.79518000
O       -2.86923000      -5.05863000     -13.65727000
H       -2.52519000      -5.94390000     -13.56013000
H       -5.90258000      -4.29813000     -12.61107000
O       -5.37114000      -4.19504000     -13.41128000
H       -4.66454000      -4.84545000     -13.27152000
