6
Properties=species:S:1:pos:R:3 frame=T 37=T |=T Written=T by=T MDAnalysis=T XYZWriter=T (release=T 2.4.3)=T pbc="F F F"
H      -16.64668000     -11.83398000      11.13828000
O      -17.44163000     -12.40549000      10.95569000
H      -17.69786000     -12.62017000      11.87884000
H      -16.32030000     -13.92214000      10.74185000
O      -15.63752000     -14.58356000      10.66850000
H      -16.01133000     -15.28775000      11.18436000
