6
Properties=species:S:1:pos:R:3 frame=T 7=T |=T Written=T by=T MDAnalysis=T XYZWriter=T (release=T 2.4.3)=T pbc="F F F"
H        7.64308000      -8.59136000     -18.96069000
O        6.84576000      -8.83742000     -18.49351000
H        6.73118000      -8.20051000     -17.79997000
H        9.23409000     -11.15062000     -17.71855000
O        9.13367000     -10.21026000     -17.87753000
H        8.17303000     -10.11275000     -17.90616000
