6
Properties=species:S:1:pos:R:3 frame=T 14=T |=T Written=T by=T MDAnalysis=T XYZWriter=T (release=T 2.4.3)=T pbc="F F F"
H      -10.01209000       7.28222000     -14.63422000
O      -10.87777000       7.73541000     -14.73433000
H      -11.03092000       8.02222000     -13.82692000
H      -13.19889000       7.81727000     -16.46392000
O      -12.47341000       7.41927000     -16.94236000
H      -11.68374000       7.58670000     -16.38155000
