6
Properties=species:S:1:pos:R:3 frame=T 8=T |=T Written=T by=T MDAnalysis=T XYZWriter=T (release=T 2.4.3)=T pbc="F F F"
H       -2.50693000     -15.86930000      12.82928000
O       -3.27063000     -15.68502000      12.27127000
H       -3.40712000     -16.53937000      11.87030000
H       -2.74107000     -14.84536000       9.06643000
O       -2.60563000     -14.24140000       9.78175000
H       -3.05735000     -14.67777000      10.51539000
