6
Properties=species:S:1:pos:R:3 frame=T 5=T |=T Written=T by=T MDAnalysis=T XYZWriter=T (release=T 2.4.3)=T pbc="F F F"
H      -12.28661000      -9.84103000     -17.76417000
O      -11.76272000     -10.58405000     -17.47105000
H      -11.87619000     -11.18287000     -18.21668000
H      -10.64065000      -9.28708000     -16.53412000
O      -10.08687000      -8.75012000     -15.96861000
H      -10.11849000      -7.89690000     -16.42132000
