6
Properties=species:S:1:pos:R:3 frame=T 7=T |=T Written=T by=T MDAnalysis=T XYZWriter=T (release=T 2.4.3)=T pbc="F F F"
H        8.14211000      17.56052000      -9.51493000
O        8.00768000      18.48513000      -9.30619000
H        7.13762000      18.52149000      -9.68629000
H       10.07911000      16.03595000     -10.16528000
O        9.13646000      16.00190000      -9.86928000
H        8.68182000      16.19011000     -10.69404000
