6
Properties=species:S:1:pos:R:3 frame=T 51=T |=T Written=T by=T MDAnalysis=T XYZWriter=T (release=T 2.4.3)=T pbc="F F F"
H        9.60162000       6.26338000      -2.80822000
O       10.00579000       5.50341000      -3.24223000
H       10.28627000       5.80455000      -4.09683000
H       11.80320000       6.60652000      -5.66944000
O       11.48053000       5.68488000      -5.62569000
H       12.25143000       5.09785000      -5.55153000
