6
Properties=species:S:1:pos:R:3 frame=T 0=T |=T Written=T by=T MDAnalysis=T XYZWriter=T (release=T 2.4.3)=T pbc="F F F"
H      -15.92313000       6.43082000      13.99462000
O      -16.15558000       5.60820000      13.47494000
H      -16.99244000       5.37146000      13.90581000
H      -14.49038000       7.45795000      11.78230000
O      -15.07817000       6.85855000      11.34608000
H      -15.64652000       6.57737000      12.05305000
