6
Properties=species:S:1:pos:R:3 frame=T 51=T |=T Written=T by=T MDAnalysis=T XYZWriter=T (release=T 2.4.3)=T pbc="F F F"
H        3.05290000       6.57220000       3.30942000
O        2.98526000       7.50729000       3.56593000
H        3.55157000       7.56577000       4.37042000
H        3.96947000       8.50915000       6.41432000
O        4.39066000       7.97514000       5.69607000
H        4.57684000       7.09206000       6.05796000
