6
Properties=species:S:1:pos:R:3 frame=T 41=T |=T Written=T by=T MDAnalysis=T XYZWriter=T (release=T 2.4.3)=T pbc="F F F"
H        7.73174000      -8.49248000     -13.16399000
O        7.37853000      -8.77429000     -12.31658000
H        6.49477000      -9.12553000     -12.54049000
H        5.95069000      -7.67962000     -11.51983000
O        5.32928000      -7.39649000     -10.82502000
H        5.55195000      -7.94624000     -10.04788000
