6
Properties=species:S:1:pos:R:3 frame=T 54=T |=T Written=T by=T MDAnalysis=T XYZWriter=T (release=T 2.4.3)=T pbc="F F F"
H       11.68298000      17.42208000       0.07539000
O       11.07421000      16.79776000       0.50873000
H       11.27752000      15.94398000       0.08976000
H       13.89114000      18.69273000       1.49666000
O       13.30138000      18.15984000       2.06486000
H       12.96204000      17.47878000       1.48273000
