6
Properties=species:S:1:pos:R:3 frame=T 5=T |=T Written=T by=T MDAnalysis=T XYZWriter=T (release=T 2.4.3)=T pbc="F F F"
H       -4.42469000       1.39663000     -11.57666000
O       -3.99250000       2.00142000     -12.22773000
H       -3.64682000       2.76938000     -11.66317000
H       -6.08689000       3.07899000     -14.63639000
O       -5.62372000       3.50428000     -13.89740000
H       -5.16660000       2.76355000     -13.45954000
