6
Properties=species:S:1:pos:R:3 frame=T 21=T |=T Written=T by=T MDAnalysis=T XYZWriter=T (release=T 2.4.3)=T pbc="F F F"
H       14.94534000       3.91182000       5.28489000
O       14.69049000       4.79382000       4.95395000
H       13.72595000       4.73077000       4.76164000
H       11.72060000       4.48771000       3.37280000
O       12.44550000       5.07905000       3.56699000
H       12.66368000       5.55304000       2.77087000
