6
Properties=species:S:1:pos:R:3 frame=T 38=T |=T Written=T by=T MDAnalysis=T XYZWriter=T (release=T 2.4.3)=T pbc="F F F"
H        6.30139000       4.07991000       2.00953000
O        6.77379000       4.78775000       2.41247000
H        6.60171000       5.58161000       1.94189000
H        5.17042000       1.80604000       0.80124000
O        5.47230000       2.70173000       0.93840000
H        4.79015000       3.08197000       1.47629000
