6
Properties=species:S:1:pos:R:3 frame=T 34=T |=T Written=T by=T MDAnalysis=T XYZWriter=T (release=T 2.4.3)=T pbc="F F F"
H       14.03013000     -11.94980000      -0.86527000
O       13.73578000     -11.12109000      -0.37706000
H       12.92021000     -10.85482000      -0.80490000
H       10.71884000     -11.63604000      -1.77916000
O       11.18778000     -10.98614000      -1.23200000
H       10.44050000     -10.53565000      -0.82935000
