6
Properties=species:S:1:pos:R:3 frame=T 37=T |=T Written=T by=T MDAnalysis=T XYZWriter=T (release=T 2.4.3)=T pbc="F F F"
H       15.24577000      -9.96342000       1.01219000
O       14.77091000      -9.35037000       1.62850000
H       15.23603000      -8.53546000       1.46388000
H       17.00226000     -10.87273000       3.46943000
O       16.08537000     -10.74190000       3.75964000
H       15.66002000     -10.26174000       3.00786000
