6
Properties=species:S:1:pos:R:3 frame=T 42=T |=T Written=T by=T MDAnalysis=T XYZWriter=T (release=T 2.4.3)=T pbc="F F F"
H       17.16572000     -17.01663000     -15.50096000
O       17.79092000     -16.68367000     -16.12859000
H       17.19421000     -16.29866000     -16.78458000
H       15.32879000     -18.67664000     -15.05557000
O       15.81487000     -17.95300000     -14.64607000
H       15.69366000     -18.06648000     -13.71463000
