6
Properties=species:S:1:pos:R:3 frame=T 26=T |=T Written=T by=T MDAnalysis=T XYZWriter=T (release=T 2.4.3)=T pbc="F F F"
H       -7.94861000      15.48130000     -17.48577000
O       -8.54628000      14.76639000     -17.78068000
H       -9.32029000      15.24212000     -18.12946000
H       -6.24286000      17.39795000     -17.80115000
O       -6.61071000      16.51091000     -18.00990000
H       -5.85451000      16.01893000     -18.35148000
