6
Properties=species:S:1:pos:R:3 frame=T 31=T |=T Written=T by=T MDAnalysis=T XYZWriter=T (release=T 2.4.3)=T pbc="F F F"
H      -11.46652000       1.45789000     -15.69420000
O      -10.73657000       2.10838000     -15.52707000
H      -11.21002000       2.92054000     -15.75253000
H      -13.23335000      -0.41079000     -15.20157000
O      -12.72741000       0.40552000     -15.25648000
H      -13.35757000       1.12323000     -15.13432000
