6
Properties=species:S:1:pos:R:3 frame=T 49=T |=T Written=T by=T MDAnalysis=T XYZWriter=T (release=T 2.4.3)=T pbc="F F F"
H        0.64268000      15.15471000      16.39545000
O        0.13821000      14.45211000      15.97860000
H       -0.77620000      14.68043000      16.23289000
H        0.19086000      13.64690000      13.27990000
O       -0.46908000      14.35257000      13.27323000
H       -0.36969000      14.81774000      14.13251000
