6
Properties=species:S:1:pos:R:3 frame=T 49=T |=T Written=T by=T MDAnalysis=T XYZWriter=T (release=T 2.4.3)=T pbc="F F F"
H        0.00693000     -18.16617000       8.39369000
O       -0.54389000     -18.94477000       8.32963000
H       -0.18783000     -19.54884000       8.98238000
H       -1.87021000     -17.80124000      11.50644000
O       -2.08675000     -18.63194000      11.02772000
H       -1.54175000     -18.60819000      10.24154000
