6
Properties=species:S:1:pos:R:3 frame=T 25=T |=T Written=T by=T MDAnalysis=T XYZWriter=T (release=T 2.4.3)=T pbc="F F F"
H       -4.03038000       1.68705000      16.11290000
O       -3.28908000       2.28383000      16.24697000
H       -3.70879000       3.03610000      16.67842000
H       -0.75119000       2.66326000      15.27087000
O       -1.38517000       2.91850000      14.58052000
H       -2.22316000       2.57257000      14.95501000
