6
Properties=species:S:1:pos:R:3 frame=T 45=T |=T Written=T by=T MDAnalysis=T XYZWriter=T (release=T 2.4.3)=T pbc="F F F"
H       -3.86952000      18.34620000       9.56748000
O       -4.51710000      18.77474000       8.97546000
H       -5.21416000      18.14831000       8.79464000
H       -4.36781000      17.67121000       5.85493000
O       -4.32682000      16.97051000       6.53043000
H       -4.29730000      17.43773000       7.36225000
