6
Properties=species:S:1:pos:R:3 frame=T 6=T |=T Written=T by=T MDAnalysis=T XYZWriter=T (release=T 2.4.3)=T pbc="F F F"
H      -17.19329000      -5.03618000     -17.13508000
O      -16.95582000      -5.72103000     -16.48174000
H      -17.79898000      -6.16498000     -16.33573000
H      -16.79318000      -3.07021000     -18.17810000
O      -17.70689000      -3.17038000     -17.95859000
H      -17.82687000      -2.57823000     -17.21953000
