6
Properties=species:S:1:pos:R:3 frame=T 35=T |=T Written=T by=T MDAnalysis=T XYZWriter=T (release=T 2.4.3)=T pbc="F F F"
H       17.17378000      -6.98105000     -13.81421000
O       18.07012000      -6.70299000     -14.00664000
H       18.00315000      -6.53615000     -14.94820000
H       18.38519000      -8.76894000     -14.57489000
O       18.60133000      -9.65717000     -14.88684000
H       19.54240000      -9.63290000     -15.20166000
