6
Properties=species:S:1:pos:R:3 frame=T 23=T |=T Written=T by=T MDAnalysis=T XYZWriter=T (release=T 2.4.3)=T pbc="F F F"
H       -4.20155000      -4.39390000      -7.85989000
O       -4.91940000      -4.37104000      -8.44072000
H       -4.50684000      -4.24397000      -9.32407000
H       -5.68997000      -6.17664000      -8.95279000
O       -6.03381000      -7.02405000      -9.22431000
H       -5.33386000      -7.65817000      -8.99539000
