6
Properties=species:S:1:pos:R:3 frame=T 3=T |=T Written=T by=T MDAnalysis=T XYZWriter=T (release=T 2.4.3)=T pbc="F F F"
H       -4.01581000     -16.43169000     -15.65362000
O       -4.45303000     -17.32592000     -15.58275000
H       -3.91780000     -17.79689000     -14.98329000
H       -4.10401000     -17.58802000     -18.93102000
O       -4.73795000     -18.04037000     -18.33056000
H       -4.57539000     -17.60577000     -17.53075000
