6
Properties=species:S:1:pos:R:3 frame=T 51=T |=T Written=T by=T MDAnalysis=T XYZWriter=T (release=T 2.4.3)=T pbc="F F F"
H        6.36267000      11.71350000       7.24845000
O        6.86385000      12.01020000       8.03959000
H        6.24984000      12.66707000       8.36585000
H        3.99679000      11.49326000       5.54365000
O        4.38044000      11.11396000       6.33480000
H        5.22384000      10.72321000       6.12728000
