6
Properties=species:S:1:pos:R:3 frame=T 27=T |=T Written=T by=T MDAnalysis=T XYZWriter=T (release=T 2.4.3)=T pbc="F F F"
H      -15.27886000     -16.50119000      -7.25054000
O      -14.55667000     -17.12385000      -7.17545000
H      -14.36375000     -17.16674000      -6.24523000
H      -12.31560000     -16.25367000      -9.42036000
O      -12.97378000     -15.91643000      -8.80814000
H      -13.48793000     -16.68154000      -8.53132000
