6
Properties=species:S:1:pos:R:3 frame=T 47=T |=T Written=T by=T MDAnalysis=T XYZWriter=T (release=T 2.4.3)=T pbc="F F F"
H        6.00220000      18.48604000       0.23231000
O        5.67854000      17.99438000      -0.52528000
H        5.30559000      17.18562000      -0.17075000
H        4.70556000      15.46528000      -1.23465000
O        4.69707000      15.55465000      -0.30548000
H        3.78563000      15.29455000      -0.13970000
