6
Properties=species:S:1:pos:R:3 frame=T 37=T |=T Written=T by=T MDAnalysis=T XYZWriter=T (release=T 2.4.3)=T pbc="F F F"
H      -12.24660000      -8.18665000      -0.92010000
O      -12.29169000      -7.62539000      -0.13424000
H      -11.67942000      -8.07188000       0.46218000
H      -10.19580000      -8.11533000       2.57192000
O      -10.30195000      -8.27775000       1.63208000
H      -10.68777000      -9.14354000       1.61318000
