6
Properties=species:S:1:pos:R:3 frame=T 45=T |=T Written=T by=T MDAnalysis=T XYZWriter=T (release=T 2.4.3)=T pbc="F F F"
H       -4.26533000       5.35075000     -12.88859000
O       -3.36866000       5.03622000     -12.97051000
H       -3.30281000       4.28201000     -12.38500000
H       -1.12542000       7.50869000     -12.56372000
O       -2.07202000       7.41510000     -12.70889000
H       -2.23718000       6.45702000     -12.72894000
