6
Properties=species:S:1:pos:R:3 frame=T 39=T |=T Written=T by=T MDAnalysis=T XYZWriter=T (release=T 2.4.3)=T pbc="F F F"
H        8.15561000      -6.44381000      -0.79588000
O        8.04105000      -6.85475000       0.07576000
H        8.33791000      -7.74771000      -0.09983000
H        7.88802000      -3.95019000      -1.70285000
O        7.66910000      -4.88274000      -1.74134000
H        8.37609000      -5.18746000      -2.32698000
