6
Properties=species:S:1:pos:R:3 frame=T 3=T |=T Written=T by=T MDAnalysis=T XYZWriter=T (release=T 2.4.3)=T pbc="F F F"
H       -8.75880000     -13.68910000     -15.08193000
O       -9.17353000     -13.16820000     -14.37212000
H      -10.07226000     -13.07091000     -14.71235000
H       -6.66903000     -13.75409000     -12.97038000
O       -7.42691000     -13.44111000     -12.47991000
H       -7.99625000     -13.13807000     -13.22427000
