6
Properties=species:S:1:pos:R:3 frame=T 40=T |=T Written=T by=T MDAnalysis=T XYZWriter=T (release=T 2.4.3)=T pbc="F F F"
H      -10.24996000      -9.93385000     -12.86323000
O      -10.50248000      -8.99481000     -12.84393000
H      -10.31637000      -8.65709000     -13.73870000
H       -8.75316000     -11.65907000     -12.67475000
O       -9.70774000     -11.52420000     -12.55107000
H      -10.04857000     -12.42772000     -12.31118000
