6
Properties=species:S:1:pos:R:3 frame=T 6=T |=T Written=T by=T MDAnalysis=T XYZWriter=T (release=T 2.4.3)=T pbc="F F F"
H       17.43434000       0.19377000      -2.68141000
O       17.89217000       1.03457000      -2.67461000
H       17.85890000       1.33494000      -1.77048000
H       15.41200000      -1.36368000      -2.76159000
O       16.36091000      -1.22693000      -2.62772000
H       16.73190000      -1.99650000      -3.06178000
