6
Properties=species:S:1:pos:R:3 frame=T 42=T |=T Written=T by=T MDAnalysis=T XYZWriter=T (release=T 2.4.3)=T pbc="F F F"
H        8.09831000      11.94918000      14.14568000
O        8.93277000      12.35857000      13.85117000
H        9.14730000      12.97015000      14.56369000
H        8.01152000      14.22309000      16.13720000
O        8.50931000      13.45481000      16.40732000
H        9.12518000      13.85471000      17.02007000
