6
Properties=species:S:1:pos:R:3 frame=T 10=T |=T Written=T by=T MDAnalysis=T XYZWriter=T (release=T 2.4.3)=T pbc="F F F"
H       15.94466000      -5.89590000       0.57968000
O       15.07863000      -6.28086000       0.79559000
H       14.53129000      -6.11621000       0.01232000
H       15.20195000      -7.90666000       1.57367000
O       15.46415000      -8.61517000       2.13235000
H       14.91234000      -9.35730000       1.88872000
