6
Properties=species:S:1:pos:R:3 frame=T 8=T |=T Written=T by=T MDAnalysis=T XYZWriter=T (release=T 2.4.3)=T pbc="F F F"
H       13.68620000     -18.49653000     -10.08407000
O       13.62687000     -18.01077000      -9.24670000
H       13.51526000     -17.08185000      -9.51183000
H       14.16794000     -14.99918000     -10.35094000
O       13.47039000     -15.68046000     -10.32779000
H       12.97533000     -15.48897000     -11.11774000
