6
Properties=species:S:1:pos:R:3 frame=T 19=T |=T Written=T by=T MDAnalysis=T XYZWriter=T (release=T 2.4.3)=T pbc="F F F"
H      -16.94186000      15.69288000       3.19491000
O      -17.29756000      16.28145000       3.86912000
H      -17.40356000      17.07015000       3.32733000
H      -15.48088000      14.24019000       1.52246000
O      -15.59650000      15.18165000       1.72952000
H      -14.76890000      15.43731000       2.16601000
