6
Properties=species:S:1:pos:R:3 frame=T 1=T |=T Written=T by=T MDAnalysis=T XYZWriter=T (release=T 2.4.3)=T pbc="F F F"
H       -5.25508000      19.31789000      -0.58847000
O       -5.23168000      19.08792000       0.37429000
H       -4.52498000      18.41232000       0.49591000
H       -2.73162000      16.64168000       0.05815000
O       -3.00765000      17.57175000      -0.09803000
H       -2.22696000      18.09623000       0.10307000
