6
Properties=species:S:1:pos:R:3 frame=T 9=T |=T Written=T by=T MDAnalysis=T XYZWriter=T (release=T 2.4.3)=T pbc="F F F"
H       14.21796000     -15.26965000     -16.34804000
O       15.19071000     -15.12203000     -16.40880000
H       15.30824000     -15.11687000     -17.36231000
H       13.89379000     -15.91189000     -18.62823000
O       14.75461000     -15.65253000     -18.96738000
H       15.29763000     -16.46078000     -18.89809000
