6
Properties=species:S:1:pos:R:3 frame=T 36=T |=T Written=T by=T MDAnalysis=T XYZWriter=T (release=T 2.4.3)=T pbc="F F F"
H       19.28385000      18.37323000     -14.35485000
O       18.42079000      17.89062000     -14.27393000
H       17.76308000      18.50469000     -14.68063000
H       18.76374000      14.92905000     -12.26569000
O       18.40734000      15.06622000     -13.15226000
H       18.28632000      16.02274000     -13.17346000
