6
Properties=species:S:1:pos:R:3 frame=T 27=T |=T Written=T by=T MDAnalysis=T XYZWriter=T (release=T 2.4.3)=T pbc="F F F"
H       15.56947000     -13.35699000      14.69472000
O       16.05988000     -13.20859000      15.50613000
H       15.92732000     -12.27557000      15.72515000
H       14.76762000     -12.11732000      12.88828000
O       15.50591000     -12.74994000      12.98122000
H       15.56617000     -13.15143000      12.08612000
