6
Properties=species:S:1:pos:R:3 frame=T 4=T |=T Written=T by=T MDAnalysis=T XYZWriter=T (release=T 2.4.3)=T pbc="F F F"
H       -3.59865000       0.17683000      -3.67284000
O       -3.49188000       0.62002000      -2.79871000
H       -2.53612000       0.57783000      -2.62523000
H       -3.96638000       3.11043000      -4.66088000
O       -4.72981000       2.67792000      -4.20667000
H       -4.26348000       2.04109000      -3.66065000
