6
Properties=species:S:1:pos:R:3 frame=T 26=T |=T Written=T by=T MDAnalysis=T XYZWriter=T (release=T 2.4.3)=T pbc="F F F"
H      -12.36874000      10.93074000       6.77094000
O      -12.84191000      10.34306000       6.18723000
H      -13.77980000      10.47705000       6.34932000
H      -15.30455000       9.43938000       5.23849000
O      -15.39648000      10.27229000       5.66476000
H      -15.87792000      10.06306000       6.44628000
