6
Properties=species:S:1:pos:R:3 frame=T 43=T |=T Written=T by=T MDAnalysis=T XYZWriter=T (release=T 2.4.3)=T pbc="F F F"
H       10.71660000      12.49157000      18.59426000
O       10.67729000      13.35173000      18.11196000
H       11.55633000      13.43316000      17.72151000
H       13.35795000      13.39885000      18.13129000
O       13.33238000      14.00471000      17.39216000
H       13.98416000      13.66099000      16.76709000
