6
Properties=species:S:1:pos:R:3 frame=T 38=T |=T Written=T by=T MDAnalysis=T XYZWriter=T (release=T 2.4.3)=T pbc="F F F"
H      -17.27921000      13.94164000      -4.40411000
O      -16.32549000      13.78290000      -4.41550000
H      -16.06196000      13.57389000      -3.51405000
H      -14.87654000      13.13314000      -1.64520000
O      -14.81682000      13.82341000      -2.29037000
H      -15.38592000      14.54444000      -1.88437000
