6
Properties=species:S:1:pos:R:3 frame=T 46=T |=T Written=T by=T MDAnalysis=T XYZWriter=T (release=T 2.4.3)=T pbc="F F F"
H       -7.39913000      -0.71061000       1.97997000
O       -7.35829000      -1.64640000       1.97518000
H       -7.17389000      -1.84729000       1.02557000
H       -4.80770000      -3.86744000       2.60941000
O       -5.47270000      -3.79813000       1.93156000
H       -6.00860000      -2.98717000       2.14261000
