6
Properties=species:S:1:pos:R:3 frame=T 15=T |=T Written=T by=T MDAnalysis=T XYZWriter=T (release=T 2.4.3)=T pbc="F F F"
H        7.24224000     -14.44425000      15.51545000
O        7.48305000     -15.13196000      16.12307000
H        6.64596000     -15.56733000      16.22529000
H        7.68079000     -12.48786000      14.98027000
O        8.17020000     -12.83119000      14.22030000
H        7.47723000     -13.05611000      13.57085000
