6
Properties=species:S:1:pos:R:3 frame=T 53=T |=T Written=T by=T MDAnalysis=T XYZWriter=T (release=T 2.4.3)=T pbc="F F F"
H       10.65294000       7.78114000       7.31424000
O        9.93306000       8.34044000       7.07598000
H        9.76410000       8.85017000       7.88748000
H        8.45090000      10.19172000       8.90962000
O        9.10706000       9.83448000       9.50879000
H        8.56264000       9.41494000      10.20376000
