6
Properties=species:S:1:pos:R:3 frame=T 11=T |=T Written=T by=T MDAnalysis=T XYZWriter=T (release=T 2.4.3)=T pbc="F F F"
H        0.27515000      -3.21566000      -7.27037000
O        0.00936000      -3.78603000      -8.03030000
H       -0.80905000      -4.24181000      -7.78213000
H        1.32759000      -2.75927000      -4.92486000
O        1.05293000      -3.42760000      -5.54866000
H        0.18092000      -3.64705000      -5.28789000
