6
Properties=species:S:1:pos:R:3 frame=T 22=T |=T Written=T by=T MDAnalysis=T XYZWriter=T (release=T 2.4.3)=T pbc="F F F"
H       -7.75980000     -13.56358000      16.04887000
O       -7.11095000     -13.99213000      16.63266000
H       -6.37226000     -13.38029000      16.51743000
H       -6.17085000     -10.91661000      16.95669000
O       -5.58215000     -11.59519000      16.61733000
H       -5.06412000     -11.84872000      17.38923000
