6
Properties=species:S:1:pos:R:3 frame=T 36=T |=T Written=T by=T MDAnalysis=T XYZWriter=T (release=T 2.4.3)=T pbc="F F F"
H       10.56280000      -8.37957000     -14.05692000
O       10.08837000      -8.04180000     -14.83633000
H       10.27058000      -8.71501000     -15.49699000
H        9.71626000      -9.74544000     -17.64022000
O       10.39520000      -9.07780000     -17.45204000
H       11.04653000      -9.55539000     -16.91187000
