6
Properties=species:S:1:pos:R:3 frame=T 4=T |=T Written=T by=T MDAnalysis=T XYZWriter=T (release=T 2.4.3)=T pbc="F F F"
H       14.47399000     -14.17021000       6.77494000
O       13.94907000     -13.61971000       7.35940000
H       13.97443000     -14.09099000       8.20533000
H       13.07168000     -13.13728000      10.18088000
O       13.69692000     -13.83210000      10.06837000
H       14.56813000     -13.38643000       9.90516000
