6
Properties=species:S:1:pos:R:3 frame=T 12=T |=T Written=T by=T MDAnalysis=T XYZWriter=T (release=T 2.4.3)=T pbc="F F F"
H        2.28753000     -16.97972000       3.18894000
O        2.23010000     -16.29613000       3.87994000
H        3.03529000     -15.80806000       3.76469000
H        2.91279000     -14.01332000       4.70047000
O        3.82477000     -14.02480000       4.29005000
H        4.34566000     -13.81696000       5.07686000
