6
Properties=species:S:1:pos:R:3 frame=T 53=T |=T Written=T by=T MDAnalysis=T XYZWriter=T (release=T 2.4.3)=T pbc="F F F"
H       19.19265000      13.17300000       1.01286000
O       19.00617000      14.07123000       0.73467000
H       18.05129000      14.18796000       0.83119000
H       16.32389000      14.26569000       2.32942000
O       16.55290000      13.68663000       1.57366000
H       15.71032000      13.50488000       1.18713000
