6
Properties=species:S:1:pos:R:3 frame=T 48=T |=T Written=T by=T MDAnalysis=T XYZWriter=T (release=T 2.4.3)=T pbc="F F F"
H       12.27006000      15.87261000       8.96365000
O       12.40021000      16.81726000       9.01543000
H       13.32376000      16.95632000       8.84610000
H       12.74166000      13.74106000       9.95313000
O       12.14914000      14.31764000       9.42394000
H       11.98215000      13.80019000       8.63055000
