6
Properties=species:S:1:pos:R:3 frame=T 3=T |=T Written=T by=T MDAnalysis=T XYZWriter=T (release=T 2.4.3)=T pbc="F F F"
H      -16.49758000      -1.48409000      12.55477000
O      -17.19652000      -0.80133000      12.54552000
H      -17.32693000      -0.70802000      11.58943000
H      -17.91177000      -2.92893000      13.12927000
O      -17.63916000      -3.78245000      12.77940000
H      -18.22309000      -4.37487000      13.26576000
