6
Properties=species:S:1:pos:R:3 frame=T 51=T |=T Written=T by=T MDAnalysis=T XYZWriter=T (release=T 2.4.3)=T pbc="F F F"
H        6.25242000       0.49635000     -12.10490000
O        6.30050000       0.44494000     -11.13518000
H        7.24200000       0.30141000     -10.96408000
H        4.99481000      -1.52630000      -9.23598000
O        4.40600000      -0.96485000      -9.76472000
H        5.02492000      -0.23698000      -9.95484000
