6
Properties=species:S:1:pos:R:3 frame=T 37=T |=T Written=T by=T MDAnalysis=T XYZWriter=T (release=T 2.4.3)=T pbc="F F F"
H       -6.42624000       9.48822000     -11.20437000
O       -6.99723000       9.61104000     -10.44084000
H       -6.39695000       9.93272000      -9.71960000
H       -7.93215000      11.11802000     -12.93717000
O       -8.63530000      10.83155000     -12.32865000
H       -8.17384000      10.53103000     -11.53268000
