6
Properties=species:S:1:pos:R:3 frame=T 23=T |=T Written=T by=T MDAnalysis=T XYZWriter=T (release=T 2.4.3)=T pbc="F F F"
H       15.45344000      -9.62678000       5.70551000
O       15.57626000      -9.06811000       4.94569000
H       14.71847000      -8.73629000       4.65918000
H       12.55700000      -7.51761000       3.73084000
O       13.28590000      -7.93118000       4.18174000
H       13.10941000      -7.74130000       5.09385000
