6
Properties=species:S:1:pos:R:3 frame=T 29=T |=T Written=T by=T MDAnalysis=T XYZWriter=T (release=T 2.4.3)=T pbc="F F F"
H       -0.80731000       4.65185000       0.51151000
O       -0.99815000       5.54032000       0.13480000
H       -1.24169000       6.06391000       0.93459000
H        0.86788000       5.40827000      -0.56527000
O        1.42082000       5.73229000      -1.31738000
H        2.26547000       5.84816000      -0.87063000
