6
Properties=species:S:1:pos:R:3 frame=T 7=T |=T Written=T by=T MDAnalysis=T XYZWriter=T (release=T 2.4.3)=T pbc="F F F"
H      -13.27928000     -13.79998000     -16.90182000
O      -12.42970000     -14.12175000     -16.56067000
H      -12.71456000     -14.63133000     -15.80085000
H      -10.82731000     -13.19385000     -15.83487000
O      -10.13524000     -12.52614000     -15.84104000
H      -10.62203000     -11.80557000     -16.28729000
