6
Properties=species:S:1:pos:R:3 frame=T 25=T |=T Written=T by=T MDAnalysis=T XYZWriter=T (release=T 2.4.3)=T pbc="F F F"
H       -7.89105000     -16.91716000      -2.45461000
O       -7.89651000     -16.68978000      -1.50649000
H       -7.31824000     -17.35475000      -1.08238000
H      -10.45114000     -18.61804000      -1.15209000
O      -10.58752000     -17.67767000      -1.26875000
H       -9.69085000     -17.32213000      -1.44799000
