6
Properties=species:S:1:pos:R:3 frame=T 1=T |=T Written=T by=T MDAnalysis=T XYZWriter=T (release=T 2.4.3)=T pbc="F F F"
H       13.75163000      15.22462000      11.63422000
O       12.99838000      15.84552000      11.61817000
H       12.32818000      15.36288000      11.09810000
H       12.19249000      15.18038000      13.47396000
O       11.62049000      14.76508000      14.05846000
H       12.15026000      14.55802000      14.82479000
