6
Properties=species:S:1:pos:R:3 frame=T 29=T |=T Written=T by=T MDAnalysis=T XYZWriter=T (release=T 2.4.3)=T pbc="F F F"
H      -17.66742000     -12.11976000      -6.70874000
O      -17.55957000     -12.60056000      -5.90723000
H      -18.22782000     -12.18969000      -5.35378000
H      -16.82165000     -14.17314000      -5.16319000
O      -16.10378000     -14.74582000      -4.95537000
H      -15.72292000     -14.83516000      -5.79101000
