6
Properties=species:S:1:pos:R:3 frame=T 45=T |=T Written=T by=T MDAnalysis=T XYZWriter=T (release=T 2.4.3)=T pbc="F F F"
H       -4.68491000     -10.16744000      -5.75433000
O       -5.33834000      -9.48526000      -5.55532000
H       -4.74739000      -8.80865000      -5.16031000
H       -2.57180000     -11.36474000      -5.54675000
O       -3.47094000     -11.49364000      -5.89768000
H       -3.92468000     -11.97883000      -5.18230000
