6
Properties=species:S:1:pos:R:3 frame=T 14=T |=T Written=T by=T MDAnalysis=T XYZWriter=T (release=T 2.4.3)=T pbc="F F F"
H        4.60632000      -5.85661000     -10.04321000
O        5.08890000      -6.36326000      -9.36599000
H        5.05802000      -5.85064000      -8.55960000
H        5.15175000      -8.17608000     -12.15579000
O        5.89465000      -7.64950000     -11.77796000
H        5.60849000      -7.36983000     -10.90253000
