6
Properties=species:S:1:pos:R:3 frame=T 37=T |=T Written=T by=T MDAnalysis=T XYZWriter=T (release=T 2.4.3)=T pbc="F F F"
H        7.77103000       0.22691000      18.60172000
O        6.93323000      -0.22216000      18.42543000
H        6.54663000      -0.40809000      19.28250000
H        7.76586000      -3.57392000      18.74293000
O        7.92744000      -2.64236000      18.98479000
H        7.42373000      -2.00830000      18.41280000
