6
Properties=species:S:1:pos:R:3 frame=T 53=T |=T Written=T by=T MDAnalysis=T XYZWriter=T (release=T 2.4.3)=T pbc="F F F"
H       10.56060000      -0.69674000     -13.62661000
O       10.52580000      -0.43676000     -12.67562000
H       11.44883000      -0.17555000     -12.51150000
H        8.07965000      -0.19316000     -11.20196000
O        8.51072000       0.57958000     -11.54944000
H        9.36457000       0.22760000     -11.79011000
