6
Properties=species:S:1:pos:R:3 frame=T 23=T |=T Written=T by=T MDAnalysis=T XYZWriter=T (release=T 2.4.3)=T pbc="F F F"
H      -16.57691000      -5.07395000      -0.88066000
O      -17.44243000      -4.82567000      -0.59588000
H      -18.02779000      -5.01613000      -1.35163000
H      -18.23277000      -6.95882000      -2.83132000
O      -18.82679000      -6.25721000      -2.62135000
H      -19.54137000      -6.66254000      -2.10386000
