6
Properties=species:S:1:pos:R:3 frame=T 19=T |=T Written=T by=T MDAnalysis=T XYZWriter=T (release=T 2.4.3)=T pbc="F F F"
H        0.92238000      12.19611000       9.24382000
O        0.20703000      11.57224000       8.98759000
H        0.03393000      11.83232000       8.08413000
H        1.56589000      10.39564000       9.11229000
O        2.36854000       9.85377000       9.05999000
H        2.22101000       9.17512000       9.71829000
