6
Properties=species:S:1:pos:R:3 frame=T 28=T |=T Written=T by=T MDAnalysis=T XYZWriter=T (release=T 2.4.3)=T pbc="F F F"
H       14.70228000      -5.86003000      12.03407000
O       14.01625000      -5.91666000      11.33808000
H       14.10221000      -5.13359000      10.74290000
H       16.03256000      -4.92466000       8.69282000
O       15.40763000      -4.30631000       9.08252000
H       14.57443000      -4.78520000       8.89823000
