6
Properties=species:S:1:pos:R:3 frame=T 46=T |=T Written=T by=T MDAnalysis=T XYZWriter=T (release=T 2.4.3)=T pbc="F F F"
H        2.79599000       5.21544000      -3.31491000
O        2.34926000       4.75714000      -2.54811000
H        1.41400000       4.96657000      -2.61456000
H        2.59106000       3.22615000      -2.09833000
O        2.82166000       2.33040000      -1.81543000
H        3.19458000       1.94799000      -2.63179000
