6
Properties=species:S:1:pos:R:3 frame=T 17=T |=T Written=T by=T MDAnalysis=T XYZWriter=T (release=T 2.4.3)=T pbc="F F F"
H      -13.52438000      10.99959000       2.11128000
O      -13.93041000      11.25544000       1.29516000
H      -14.87817000      11.18126000       1.50248000
H      -12.12188000       8.87329000      -0.32923000
O      -12.29798000       9.79503000      -0.34861000
H      -12.65972000      10.02839000       0.50849000
