6
Properties=species:S:1:pos:R:3 frame=T 10=T |=T Written=T by=T MDAnalysis=T XYZWriter=T (release=T 2.4.3)=T pbc="F F F"
H        9.45997000      16.92816000       4.41901000
O        9.45848000      16.00712000       4.75041000
H       10.30551000      15.87225000       5.24416000
H        9.87157000      18.89169000       3.28613000
O        9.48100000      18.03406000       3.08547000
H        8.75099000      18.26552000       2.45278000
