6
Properties=species:S:1:pos:R:3 frame=T 0=T |=T Written=T by=T MDAnalysis=T XYZWriter=T (release=T 2.4.3)=T pbc="F F F"
H        1.54720000       8.31359000      -9.70476000
O        2.40131000       8.74792000      -9.75288000
H        2.88627000       8.28064000      -9.08332000
H        3.24071000       8.12757000     -11.53601000
O        3.28813000       7.34238000     -12.08037000
H        2.81188000       7.55762000     -12.89119000
