6
Properties=species:S:1:pos:R:3 frame=T 47=T |=T Written=T by=T MDAnalysis=T XYZWriter=T (release=T 2.4.3)=T pbc="F F F"
H       11.59672000     -10.38844000      -4.19126000
O       12.11030000     -11.08834000      -3.72337000
H       11.44152000     -11.55993000      -3.24042000
H       11.22390000      -8.14454000      -1.87965000
O       10.83659000      -8.97218000      -2.15834000
H       11.48282000      -9.62570000      -1.90374000
