6
Properties=species:S:1:pos:R:3 frame=T 26=T |=T Written=T by=T MDAnalysis=T XYZWriter=T (release=T 2.4.3)=T pbc="F F F"
H      -19.41147000     -13.31216000       6.84053000
O      -18.87434000     -12.85841000       7.50942000
H      -18.16693000     -12.50298000       6.96436000
H      -18.81490000     -10.87359000       7.52556000
O      -18.66726000      -9.92887000       7.36130000
H      -18.26216000      -9.59512000       8.18984000
