6
Properties=species:S:1:pos:R:3 frame=T 27=T |=T Written=T by=T MDAnalysis=T XYZWriter=T (release=T 2.4.3)=T pbc="F F F"
H       -9.66533000      -8.45143000      15.43436000
O       -9.93766000      -8.92471000      14.62334000
H       -9.27374000      -8.75176000      13.97800000
H      -11.55882000      -8.70228000      14.55782000
O      -12.43871000      -8.33223000      14.49173000
H      -13.01879000      -9.09485000      14.54384000
