6
Properties=species:S:1:pos:R:3 frame=T 49=T |=T Written=T by=T MDAnalysis=T XYZWriter=T (release=T 2.4.3)=T pbc="F F F"
H       15.23399000     -11.93343000       0.35728000
O       14.36181000     -12.19834000       0.02714000
H       14.61520000     -12.79738000      -0.68602000
H       16.40129000     -12.73279000       1.93041000
O       16.72297000     -12.16428000       1.21692000
H       17.18103000     -11.44631000       1.66727000
