6
Properties=species:S:1:pos:R:3 frame=T 6=T |=T Written=T by=T MDAnalysis=T XYZWriter=T (release=T 2.4.3)=T pbc="F F F"
H       -0.51234000     -14.98863000      -9.84664000
O       -0.42940000     -15.91008000     -10.00451000
H       -1.15608000     -16.26864000      -9.50827000
H       -3.27418000     -17.59690000      -8.19824000
O       -2.55443000     -17.09575000      -8.61786000
H       -2.10369000     -16.67096000      -7.89101000
