6
Properties=species:S:1:pos:R:3 frame=T 0=T |=T Written=T by=T MDAnalysis=T XYZWriter=T (release=T 2.4.3)=T pbc="F F F"
H      -14.82407000     -13.72535000       2.27408000
O      -15.70098000     -13.28707000       2.11587000
H      -15.50325000     -12.82347000       1.27662000
H      -12.52284000     -14.75315000       2.35439000
O      -13.46929000     -14.90893000       2.32080000
H      -13.51854000     -15.78311000       1.91362000
