6
Properties=species:S:1:pos:R:3 frame=T 30=T |=T Written=T by=T MDAnalysis=T XYZWriter=T (release=T 2.4.3)=T pbc="F F F"
H       16.99771000       4.84072000      -7.38646000
O       17.91616000       4.76215000      -7.64641000
H       17.90575000       5.43868000      -8.34500000
H       18.46894000       3.27016000      -6.69405000
O       18.47968000       2.85820000      -5.80106000
H       18.41172000       3.68059000      -5.25258000
