6
Properties=species:S:1:pos:R:3 frame=T 12=T |=T Written=T by=T MDAnalysis=T XYZWriter=T (release=T 2.4.3)=T pbc="F F F"
H      -15.14277000      -3.96069000      12.99094000
O      -15.77986000      -4.67042000      12.78517000
H      -16.55272000      -4.12704000      12.63989000
H      -13.60983000      -6.96838000      12.90528000
O      -13.96503000      -6.48781000      13.66503000
H      -14.63583000      -5.88865000      13.25356000
