6
Properties=species:S:1:pos:R:3 frame=T 35=T |=T Written=T by=T MDAnalysis=T XYZWriter=T (release=T 2.4.3)=T pbc="F F F"
H       10.95985000      -1.00664000      -1.22766000
O       11.18838000      -0.56818000      -2.06593000
H       10.83382000      -1.15156000      -2.75736000
H        9.78140000      -2.60760000      -3.85547000
O       10.69545000      -2.26560000      -4.06302000
H       10.52026000      -1.67685000      -4.81580000
