6
Properties=species:S:1:pos:R:3 frame=T 31=T |=T Written=T by=T MDAnalysis=T XYZWriter=T (release=T 2.4.3)=T pbc="F F F"
H      -15.09454000      -4.92813000     -18.21877000
O      -14.17329000      -4.81301000     -17.94196000
H      -13.92031000      -4.01423000     -18.38002000
H      -13.34351000      -2.86161000     -15.89402000
O      -12.39385000      -2.68239000     -15.83580000
H      -12.16106000      -2.42217000     -16.73041000
