6
Properties=species:S:1:pos:R:3 frame=T 52=T |=T Written=T by=T MDAnalysis=T XYZWriter=T (release=T 2.4.3)=T pbc="F F F"
H      -12.50914000     -15.91042000      -4.85011000
O      -12.64400000     -15.15879000      -4.28875000
H      -13.11631000     -15.56655000      -3.56840000
H      -11.79690000     -17.83863000      -4.55287000
O      -12.74181000     -17.95038000      -4.38241000
H      -13.15130000     -17.78541000      -5.24252000
