6
Properties=species:S:1:pos:R:3 frame=T 47=T |=T Written=T by=T MDAnalysis=T XYZWriter=T (release=T 2.4.3)=T pbc="F F F"
H       -4.10598000       5.41224000       1.20227000
O       -4.68630000       5.55881000       0.44345000
H       -4.45261000       4.88861000      -0.19216000
H       -2.10041000       5.22214000       2.57263000
O       -2.85868000       5.68421000       2.24489000
H       -3.38811000       5.88208000       3.01095000
