6
Properties=species:S:1:pos:R:3 frame=T 0=T |=T Written=T by=T MDAnalysis=T XYZWriter=T (release=T 2.4.3)=T pbc="F F F"
H        7.01946000       4.92524000      11.48182000
O        7.45112000       5.12955000      10.63060000
H        8.34108000       5.43436000      10.88633000
H       10.12337000       5.71100000      12.57179000
O       10.23222000       5.76140000      11.63933000
H       10.18645000       6.68264000      11.45729000
