6
Properties=species:S:1:pos:R:3 frame=T 5=T |=T Written=T by=T MDAnalysis=T XYZWriter=T (release=T 2.4.3)=T pbc="F F F"
H       -7.73966000      13.16330000      14.24406000
O       -8.26026000      13.67272000      14.88996000
H       -9.09016000      13.78961000      14.36939000
H       -7.98885000      16.73466000      14.40672000
O       -7.69937000      16.27098000      15.21182000
H       -7.80671000      15.34523000      15.00023000
