6
Properties=species:S:1:pos:R:3 frame=T 40=T |=T Written=T by=T MDAnalysis=T XYZWriter=T (release=T 2.4.3)=T pbc="F F F"
H        3.02219000     -15.75934000       6.51825000
O        2.86532000     -16.43689000       5.83880000
H        1.92684000     -16.30767000       5.59162000
H       -0.20734000     -16.14154000       5.46946000
O        0.41972000     -16.23546000       4.75095000
H        0.44469000     -15.34538000       4.32894000
