6
Properties=species:S:1:pos:R:3 frame=T 31=T |=T Written=T by=T MDAnalysis=T XYZWriter=T (release=T 2.4.3)=T pbc="F F F"
H        5.78403000      12.45296000      -5.55084000
O        6.10005000      12.23338000      -4.67462000
H        6.63154000      13.03825000      -4.47152000
H        6.62136000       9.21121000      -3.96194000
O        6.60169000       9.49674000      -4.85867000
H        6.49730000      10.45484000      -4.79240000
