6
Properties=species:S:1:pos:R:3 frame=T 36=T |=T Written=T by=T MDAnalysis=T XYZWriter=T (release=T 2.4.3)=T pbc="F F F"
H      -10.30911000      -8.86994000      16.01516000
O      -10.07006000      -9.68054000      16.41161000
H       -9.74435000      -9.34814000      17.22078000
H       -7.10633000      -8.90028000      14.75513000
O       -8.00830000      -8.57168000      14.58361000
H       -8.54306000      -8.97637000      15.27388000
