6
Properties=species:S:1:pos:R:3 frame=T 3=T |=T Written=T by=T MDAnalysis=T XYZWriter=T (release=T 2.4.3)=T pbc="F F F"
H       -0.53928000     -17.58749000     -16.72365000
O       -1.40589000     -17.14288000     -16.65936000
H       -1.93015000     -17.76333000     -16.14856000
H       -1.06970000     -16.09386000     -18.11571000
O       -0.69960000     -15.62113000     -18.84127000
H       -1.05237000     -14.73904000     -18.68786000
