6
Properties=species:S:1:pos:R:3 frame=T 32=T |=T Written=T by=T MDAnalysis=T XYZWriter=T (release=T 2.4.3)=T pbc="F F F"
H        6.07520000      -1.25001000      13.32133000
O        6.33570000      -2.12734000      13.00638000
H        6.64593000      -2.59517000      13.81831000
H        9.38186000      -0.58537000      14.16301000
O        9.12174000      -1.15155000      13.42756000
H        8.30910000      -1.59382000      13.67249000
