6
Properties=species:S:1:pos:R:3 frame=T 21=T |=T Written=T by=T MDAnalysis=T XYZWriter=T (release=T 2.4.3)=T pbc="F F F"
H       -7.12550000       7.83589000      -8.07234000
O       -7.16356000       7.11186000      -8.73914000
H       -6.25943000       6.97217000      -9.03750000
H       -7.29817000       9.02224000      -6.21211000
O       -7.91562000       8.29008000      -6.26400000
H       -7.58458000       7.80731000      -5.49995000
