6
Properties=species:S:1:pos:R:3 frame=T 53=T |=T Written=T by=T MDAnalysis=T XYZWriter=T (release=T 2.4.3)=T pbc="F F F"
H       -5.38610000     -17.57119000       9.39850000
O       -5.20427000     -17.17130000       8.51821000
H       -5.63002000     -16.32343000       8.44186000
H       -6.63515000     -14.35556000       9.27902000
O       -6.69857000     -14.74691000       8.36407000
H       -7.64947000     -14.86504000       8.23458000
