6
Properties=species:S:1:pos:R:3 frame=T 47=T |=T Written=T by=T MDAnalysis=T XYZWriter=T (release=T 2.4.3)=T pbc="F F F"
H        5.58240000     -16.69270000       8.81278000
O        4.92172000     -16.17806000       8.36286000
H        5.04998000     -15.33240000       8.79644000
H        5.76206000     -15.96311000       6.55274000
O        6.51863000     -15.64251000       6.06288000
H        6.24389000     -15.67057000       5.16714000
