6
Properties=species:S:1:pos:R:3 frame=T 47=T |=T Written=T by=T MDAnalysis=T XYZWriter=T (release=T 2.4.3)=T pbc="F F F"
H       -1.05972000      -3.26561000     -15.02805000
O       -0.28247000      -2.70635000     -15.20869000
H        0.26951000      -2.81260000     -14.39554000
H        0.35295000      -2.14379000     -16.66417000
O        0.47329000      -1.55564000     -17.41012000
H        0.21705000      -0.67503000     -17.09180000
