6
Properties=species:S:1:pos:R:3 frame=T 29=T |=T Written=T by=T MDAnalysis=T XYZWriter=T (release=T 2.4.3)=T pbc="F F F"
H        0.24747000      -9.83378000       9.48108000
O       -0.26528000     -10.60903000       9.33644000
H       -0.50397000     -10.92014000      10.22596000
H        0.55643000     -12.18607000       9.22562000
O        0.78425000     -13.06342000       9.59176000
H        1.27879000     -13.54721000       8.93553000
