6
Properties=species:S:1:pos:R:3 frame=T 33=T |=T Written=T by=T MDAnalysis=T XYZWriter=T (release=T 2.4.3)=T pbc="F F F"
H      -16.36022000      -6.41006000      13.69148000
O      -16.15082000      -7.31953000      13.94149000
H      -16.53271000      -7.85935000      13.21866000
H      -14.87402000      -6.15949000      16.46589000
O      -15.08650000      -7.13431000      16.47968000
H      -15.25159000      -7.37393000      15.57907000
