6
Properties=species:S:1:pos:R:3 frame=T 26=T |=T Written=T by=T MDAnalysis=T XYZWriter=T (release=T 2.4.3)=T pbc="F F F"
H       15.70946000     -15.72943000      14.54506000
O       16.30336000     -16.46490000      14.48562000
H       16.22827000     -16.69760000      13.55137000
H       14.42336000     -16.94703000      11.66474000
O       15.34330000     -16.83689000      12.01384000
H       15.93826000     -16.82134000      11.24266000
