6
Properties=species:S:1:pos:R:3 frame=T 4=T |=T Written=T by=T MDAnalysis=T XYZWriter=T (release=T 2.4.3)=T pbc="F F F"
H        9.01634000      -6.83779000      -0.39940000
O        8.75328000      -6.43196000       0.41991000
H        7.79920000      -6.24712000       0.35680000
H        9.24340000      -8.71252000       2.34072000
O        9.46717000      -7.79400000       2.59329000
H        9.41356000      -7.28813000       1.77076000
