6
Properties=species:S:1:pos:R:3 frame=T 11=T |=T Written=T by=T MDAnalysis=T XYZWriter=T (release=T 2.4.3)=T pbc="F F F"
H       -4.12212000      -4.73935000      -0.71144000
O       -3.81330000      -5.38690000      -0.03490000
H       -3.93378000      -6.21310000      -0.49015000
H       -4.87079000      -5.52465000       1.39241000
O       -5.69488000      -5.66029000       1.89551000
H       -5.85217000      -6.59761000       1.88889000
