6
Properties=species:S:1:pos:R:3 frame=T 32=T |=T Written=T by=T MDAnalysis=T XYZWriter=T (release=T 2.4.3)=T pbc="F F F"
H        1.56572000      -7.78196000       4.07427000
O        1.79674000      -7.69892000       3.13865000
H        0.86242000      -7.64089000       2.83436000
H       -0.99486000      -7.92006000       1.38906000
O       -0.90645000      -7.67512000       2.30669000
H       -1.66174000      -7.07586000       2.42291000
