6
Properties=species:S:1:pos:R:3 frame=T 37=T |=T Written=T by=T MDAnalysis=T XYZWriter=T (release=T 2.4.3)=T pbc="F F F"
H        5.56064000      -7.98830000       1.03955000
O        5.17932000      -7.17063000       0.72121000
H        5.93468000      -6.78207000       0.22199000
H        5.01274000      -5.88521000       2.22184000
O        4.86251000      -5.15316000       2.83045000
H        5.18793000      -5.49647000       3.64478000
