6
Properties=species:S:1:pos:R:3 frame=T 46=T |=T Written=T by=T MDAnalysis=T XYZWriter=T (release=T 2.4.3)=T pbc="F F F"
H      -11.91232000     -14.99739000     -13.65953000
O      -11.68831000     -15.88584000     -13.34526000
H      -12.35935000     -15.97238000     -12.67122000
H       -8.66743000     -16.83941000     -12.67986000
O       -9.13214000     -16.18912000     -12.15772000
H      -10.00430000     -16.10009000     -12.60306000
