6
Properties=species:S:1:pos:R:3 frame=T 9=T |=T Written=T by=T MDAnalysis=T XYZWriter=T (release=T 2.4.3)=T pbc="F F F"
H       -7.65531000       5.47004000      -5.88238000
O       -6.91475000       5.90706000      -6.29488000
H       -6.27468000       6.01337000      -5.58303000
H       -8.87874000       4.78164000      -7.38538000
O       -9.29918000       4.55841000      -6.55971000
H       -9.82442000       5.34909000      -6.32508000
