6
Properties=species:S:1:pos:R:3 frame=T 26=T |=T Written=T by=T MDAnalysis=T XYZWriter=T (release=T 2.4.3)=T pbc="F F F"
H       11.70483000     -11.92990000      -8.80639000
O       11.36724000     -12.78065000      -8.48849000
H       10.72187000     -12.96074000      -9.14828000
H       12.17404000     -13.84940000      -7.36068000
O       12.24073000     -14.56085000      -6.74860000
H       12.93241000     -15.10084000      -7.16667000
