6
Properties=species:S:1:pos:R:3 frame=T 21=T |=T Written=T by=T MDAnalysis=T XYZWriter=T (release=T 2.4.3)=T pbc="F F F"
H       12.74007000       9.57612000      -0.07363000
O       13.25056000       8.75207000      -0.05681000
H       13.20185000       8.44803000       0.83975000
H       10.71688000      10.91689000      -0.65957000
O       10.68038000      10.15770000      -0.05768000
H       10.40946000       9.44252000      -0.66584000
