6
Properties=species:S:1:pos:R:3 frame=T 32=T |=T Written=T by=T MDAnalysis=T XYZWriter=T (release=T 2.4.3)=T pbc="F F F"
H      -14.82566000       7.35937000       6.22889000
O      -14.59293000       8.20491000       6.63262000
H      -15.32597000       8.36311000       7.24775000
H      -14.41620000       9.19873000       5.05680000
O      -13.74602000       9.32364000       4.37888000
H      -13.89075000       8.58582000       3.73101000
