6
Properties=species:S:1:pos:R:3 frame=T 25=T |=T Written=T by=T MDAnalysis=T XYZWriter=T (release=T 2.4.3)=T pbc="F F F"
H        7.90231000      -8.31596000      16.19392000
O        7.93418000      -7.39607000      16.44998000
H        8.39754000      -7.27749000      17.28644000
H        6.91854000     -10.08337000      15.86950000
O        7.90978000     -10.03152000      15.93253000
H        8.21953000     -10.09221000      14.99717000
