6
Properties=species:S:1:pos:R:3 frame=T 42=T |=T Written=T by=T MDAnalysis=T XYZWriter=T (release=T 2.4.3)=T pbc="F F F"
H       -3.67940000      14.37650000      13.10910000
O       -3.20052000      15.15943000      13.42278000
H       -3.75297000      15.90786000      13.15447000
H       -1.92552000      14.60335000      12.05337000
O       -1.31196000      13.95078000      11.65526000
H       -1.88400000      13.55881000      10.97499000
