6
Properties=species:S:1:pos:R:3 frame=T 21=T |=T Written=T by=T MDAnalysis=T XYZWriter=T (release=T 2.4.3)=T pbc="F F F"
H        4.41469000      16.25410000     -12.09889000
O        4.97302000      15.45185000     -12.01889000
H        4.99417000      15.33651000     -11.05830000
H        4.70762000      12.21286000     -11.79433000
O        4.11948000      12.92314000     -11.47910000
H        4.47774000      13.71957000     -11.92162000
