6
Properties=species:S:1:pos:R:3 frame=T 18=T |=T Written=T by=T MDAnalysis=T XYZWriter=T (release=T 2.4.3)=T pbc="F F F"
H        6.09714000      -4.71642000      16.18503000
O        6.97253000      -5.04599000      15.84140000
H        7.58467000      -4.55896000      16.40326000
H        9.31648000      -3.36594000      17.59998000
O        8.35012000      -3.52113000      17.45429000
H        8.02588000      -3.72536000      18.34554000
