6
Properties=species:S:1:pos:R:3 frame=T 2=T |=T Written=T by=T MDAnalysis=T XYZWriter=T (release=T 2.4.3)=T pbc="F F F"
H       -7.38047000      -2.45679000      -6.87403000
O       -7.48594000      -3.40877000      -6.96470000
H       -6.79553000      -3.67365000      -7.58631000
H       -4.69590000      -2.70994000      -8.64042000
O       -5.42425000      -3.38824000      -8.71269000
H       -5.07802000      -3.93625000      -9.45949000
