6
Properties=species:S:1:pos:R:3 frame=T 27=T |=T Written=T by=T MDAnalysis=T XYZWriter=T (release=T 2.4.3)=T pbc="F F F"
H      -10.04811000     -18.07455000       6.10052000
O      -10.96615000     -17.80348000       5.99883000
H      -10.93585000     -16.87049000       5.92589000
H      -11.39825000     -15.23117000       6.71159000
O      -11.12649000     -15.07224000       5.78078000
H      -11.58238000     -14.27407000       5.51590000
