6
Properties=species:S:1:pos:R:3 frame=T 22=T |=T Written=T by=T MDAnalysis=T XYZWriter=T (release=T 2.4.3)=T pbc="F F F"
H        0.37959000      15.36623000      -6.23551000
O        0.21909000      15.49268000      -7.19419000
H        0.88658000      14.91194000      -7.61014000
H       -2.16500000      16.28392000      -9.02611000
O       -2.02010000      15.37498000      -8.66186000
H       -1.44289000      15.48606000      -7.91885000
