6
Properties=species:S:1:pos:R:3 frame=T 50=T |=T Written=T by=T MDAnalysis=T XYZWriter=T (release=T 2.4.3)=T pbc="F F F"
H       14.66644000      10.60508000      -4.76487000
O       14.39032000       9.81140000      -5.22292000
H       14.70471000       9.10158000      -4.61957000
H       14.83222000       6.52209000      -4.31388000
O       14.92440000       7.45146000      -4.05134000
H       15.75405000       7.53816000      -3.58821000
