6
Properties=species:S:1:pos:R:3 frame=T 38=T |=T Written=T by=T MDAnalysis=T XYZWriter=T (release=T 2.4.3)=T pbc="F F F"
H      -18.20971000      -1.55053000     -14.40816000
O      -17.29714000      -1.24385000     -14.51027000
H      -16.78779000      -2.09341000     -14.47539000
H      -17.53177000      -0.35133000     -16.02967000
O      -17.82549000      -0.16342000     -16.93974000
H      -18.79812000      -0.03572000     -16.91129000
