6
Properties=species:S:1:pos:R:3 frame=T 54=T |=T Written=T by=T MDAnalysis=T XYZWriter=T (release=T 2.4.3)=T pbc="F F F"
H      -15.06477000     -15.88000000      16.34359000
O      -15.18484000     -15.27675000      17.06616000
H      -15.90144000     -15.72509000      17.53654000
H      -18.78276000     -16.01292000      18.04785000
O      -17.82472000     -15.90519000      17.94589000
H      -17.76010000     -15.81980000      16.98099000
