6
Properties=species:S:1:pos:R:3 frame=T 54=T |=T Written=T by=T MDAnalysis=T XYZWriter=T (release=T 2.4.3)=T pbc="F F F"
H        5.42459000      -1.52271000      14.50252000
O        5.28721000      -1.87203000      13.61540000
H        5.96413000      -1.41851000      13.14925000
H        4.70970000      -3.63073000      13.74833000
O        4.05101000      -4.31736000      13.75468000
H        4.22475000      -4.72988000      14.62753000
