6
Properties=species:S:1:pos:R:3 frame=T 38=T |=T Written=T by=T MDAnalysis=T XYZWriter=T (release=T 2.4.3)=T pbc="F F F"
H       19.06855000     -10.26095000      -7.20281000
O       19.10067000      -9.54902000      -6.54710000
H       18.50869000      -8.90565000      -6.94409000
H       17.39281000     -11.35350000      -9.43663000
O       17.81151000     -10.69256000      -8.86782000
H       17.01855000     -10.20289000      -8.53961000
