6
Properties=species:S:1:pos:R:3 frame=T 45=T |=T Written=T by=T MDAnalysis=T XYZWriter=T (release=T 2.4.3)=T pbc="F F F"
H       13.46276000     -16.90029000     -13.72441000
O       13.63234000     -16.59359000     -14.62071000
H       14.60916000     -16.68983000     -14.77316000
H       12.15109000     -16.71523000     -12.04854000
O       12.92518000     -17.32108000     -12.12819000
H       12.82113000     -18.01348000     -11.47228000
