6
Properties=species:S:1:pos:R:3 frame=T 6=T |=T Written=T by=T MDAnalysis=T XYZWriter=T (release=T 2.4.3)=T pbc="F F F"
H       -4.73915000      -9.95065000     -16.99231000
O       -4.24128000      -9.16118000     -16.73092000
H       -3.28975000      -9.37760000     -16.78683000
H       -1.50156000      -9.84601000     -16.32506000
O       -1.48455000      -9.37310000     -17.15874000
H       -0.70649000      -8.82963000     -17.04618000
