6
Properties=species:S:1:pos:R:3 frame=T 11=T |=T Written=T by=T MDAnalysis=T XYZWriter=T (release=T 2.4.3)=T pbc="F F F"
H      -14.68265000       8.55937000     -15.54207000
O      -14.23986000       7.70155000     -15.37163000
H      -14.11190000       7.64997000     -14.40212000
H      -15.40579000       7.93060000     -18.25625000
O      -14.48306000       7.87152000     -18.02226000
H      -14.50446000       7.45626000     -17.14112000
