6
Properties=species:S:1:pos:R:3 frame=T 8=T |=T Written=T by=T MDAnalysis=T XYZWriter=T (release=T 2.4.3)=T pbc="F F F"
H       14.37204000      19.19168000     -13.86392000
O       14.69752000      18.29066000     -13.89875000
H       14.57645000      17.92965000     -14.78723000
H       10.78419000      18.39416000     -13.65660000
O       11.02812000      18.47756000     -14.56842000
H       11.95623000      18.71717000     -14.50196000
