6
Properties=species:S:1:pos:R:3 frame=T 52=T |=T Written=T by=T MDAnalysis=T XYZWriter=T (release=T 2.4.3)=T pbc="F F F"
H      -10.32713000       4.49305000      17.72108000
O      -11.07051000       5.11667000      17.84924000
H      -11.79925000       4.61008000      17.49580000
H       -7.79892000       5.06196000      17.06789000
O       -7.54796000       5.07743000      17.98445000
H       -7.99537000       5.88331000      18.34427000
