6
Properties=species:S:1:pos:R:3 frame=T 18=T |=T Written=T by=T MDAnalysis=T XYZWriter=T (release=T 2.4.3)=T pbc="F F F"
H       11.34810000     -16.35142000     -18.23851000
O       11.89774000     -15.53869000     -18.21035000
H       11.53927000     -14.95290000     -18.88909000
H       10.05116000     -17.15330000     -19.39318000
O       10.14275000     -17.53031000     -18.51149000
H        9.64688000     -16.93581000     -17.95941000
