6
Properties=species:S:1:pos:R:3 frame=T 13=T |=T Written=T by=T MDAnalysis=T XYZWriter=T (release=T 2.4.3)=T pbc="F F F"
H        3.31604000     -11.45262000      10.46363000
O        2.96101000     -12.20199000      11.00105000
H        3.34165000     -13.01783000      10.62578000
H        3.92588000     -14.02032000       9.16496000
O        3.89569000     -13.38786000       8.46201000
H        2.97950000     -13.09111000       8.51902000
