6
Properties=species:S:1:pos:R:3 frame=T 25=T |=T Written=T by=T MDAnalysis=T XYZWriter=T (release=T 2.4.3)=T pbc="F F F"
H        0.78263000      -8.75188000      -3.32102000
O        0.57351000      -8.23321000      -2.53008000
H       -0.38006000      -8.11879000      -2.55064000
H        1.97571000      -8.61971000      -5.97307000
O        2.16538000      -8.55103000      -5.03453000
H        3.10351000      -8.79182000      -5.03432000
