6
Properties=species:S:1:pos:R:3 frame=T 12=T |=T Written=T by=T MDAnalysis=T XYZWriter=T (release=T 2.4.3)=T pbc="F F F"
H       16.69919000      -1.88813000       7.88546000
O       15.77808000      -1.57455000       7.93647000
H       15.50817000      -1.53615000       7.01538000
H       15.85940000       0.52549000       9.88460000
O       15.61382000       0.04352000      10.67887000
H       15.27706000      -0.78791000      10.38262000
