6
Properties=species:S:1:pos:R:3 frame=T 26=T |=T Written=T by=T MDAnalysis=T XYZWriter=T (release=T 2.4.3)=T pbc="F F F"
H       -5.15125000      13.01160000     -10.94035000
O       -5.69725000      13.32854000     -11.66158000
H       -5.59177000      14.29396000     -11.58989000
H       -2.33694000      13.78237000     -12.91341000
O       -3.03757000      13.17896000     -13.15692000
H       -3.66897000      13.35479000     -12.45950000
