6
Properties=species:S:1:pos:R:3 frame=T 7=T |=T Written=T by=T MDAnalysis=T XYZWriter=T (release=T 2.4.3)=T pbc="F F F"
H      -17.96185000      11.49201000      12.41626000
O      -18.73839000      12.08368000      12.33581000
H      -19.00475000      12.20512000      13.24264000
H      -17.01364000       9.87773000      13.17286000
O      -16.22279000      10.43489000      13.16108000
H      -15.76381000      10.04600000      12.40409000
