6
Properties=species:S:1:pos:R:3 frame=T 29=T |=T Written=T by=T MDAnalysis=T XYZWriter=T (release=T 2.4.3)=T pbc="F F F"
H       15.22921000     -15.06956000       4.48945000
O       14.84152000     -14.31989000       4.96686000
H       13.93801000     -14.23708000       4.64562000
H       15.45299000     -12.86343000       3.97527000
O       15.84789000     -12.01892000       3.78446000
H       15.30165000     -11.42358000       4.30841000
