6
Properties=species:S:1:pos:R:3 frame=T 52=T |=T Written=T by=T MDAnalysis=T XYZWriter=T (release=T 2.4.3)=T pbc="F F F"
H       -0.83370000       0.76726000     -13.58758000
O       -0.69042000       0.19595000     -12.82539000
H       -0.84944000      -0.67538000     -13.23346000
H       -3.47559000      -0.83017000     -11.30424000
O       -3.22014000       0.09982000     -11.24420000
H       -2.62580000       0.21262000     -11.99028000
