6
Properties=species:S:1:pos:R:3 frame=T 10=T |=T Written=T by=T MDAnalysis=T XYZWriter=T (release=T 2.4.3)=T pbc="F F F"
H       17.29457000     -10.27381000       7.34185000
O       16.53477000      -9.66866000       7.38225000
H       16.27635000      -9.59281000       6.45575000
H       18.75444000     -12.30698000       8.08613000
O       18.66633000     -11.55713000       7.50159000
H       18.80101000     -11.85804000       6.61658000
