6
Properties=species:S:1:pos:R:3 frame=T 48=T |=T Written=T by=T MDAnalysis=T XYZWriter=T (release=T 2.4.3)=T pbc="F F F"
H       -1.98844000      -0.74865000     -14.86643000
O       -1.35688000      -1.12430000     -14.21380000
H       -0.83944000      -0.33142000     -13.97743000
H       -0.29010000       1.97569000     -14.16182000
O        0.20467000       1.14204000     -14.17725000
H        0.50340000       1.05690000     -13.27859000
