6
Properties=species:S:1:pos:R:3 frame=T 50=T |=T Written=T by=T MDAnalysis=T XYZWriter=T (release=T 2.4.3)=T pbc="F F F"
H       10.02631000      -9.04058000     -17.12399000
O        9.14656000      -9.16726000     -16.73819000
H        9.34318000      -9.63632000     -15.90934000
H       11.47418000      -8.65008000     -19.22730000
O       10.87097000      -8.27782000     -18.56959000
H       11.40593000      -7.68514000     -18.05590000
