6
Properties=species:S:1:pos:R:3 frame=T 31=T |=T Written=T by=T MDAnalysis=T XYZWriter=T (release=T 2.4.3)=T pbc="F F F"
H       11.48169000      -2.61143000       4.51226000
O       11.97373000      -1.93873000       4.97961000
H       11.79589000      -2.17143000       5.92196000
H       12.94284000      -1.57964000       3.39934000
O       13.66938000      -1.34213000       2.81001000
H       14.10878000      -0.58565000       3.26073000
