6
Properties=species:S:1:pos:R:3 frame=T 53=T |=T Written=T by=T MDAnalysis=T XYZWriter=T (release=T 2.4.3)=T pbc="F F F"
H       14.49214000       4.27115000     -17.77760000
O       14.31526000       5.13907000     -18.22502000
H       14.50816000       4.92056000     -19.12171000
H       12.67804000       6.29817000     -15.79953000
O       13.38257000       6.84954000     -16.21025000
H       13.66070000       6.31617000     -16.99096000
