6
Properties=species:S:1:pos:R:3 frame=T 7=T |=T Written=T by=T MDAnalysis=T XYZWriter=T (release=T 2.4.3)=T pbc="F F F"
H       -5.53073000       7.12247000      10.84536000
O       -5.73717000       6.19914000      10.69229000
H       -5.32360000       5.75471000      11.43178000
H       -4.49172000       8.37457000      12.48327000
O       -5.01175000       8.86664000      11.84749000
H       -5.53157000       9.46316000      12.41653000
