6
Properties=species:S:1:pos:R:3 frame=T 21=T |=T Written=T by=T MDAnalysis=T XYZWriter=T (release=T 2.4.3)=T pbc="F F F"
H       -6.77213000      13.42530000     -14.15443000
O       -7.65157000      13.59157000     -13.79235000
H       -7.78369000      14.53788000     -14.01506000
H       -9.08430000      13.42809000     -14.98232000
O       -9.90868000      13.58895000     -15.48124000
H      -10.57613000      13.75454000     -14.80735000
