6
Properties=species:S:1:pos:R:3 frame=T 9=T |=T Written=T by=T MDAnalysis=T XYZWriter=T (release=T 2.4.3)=T pbc="F F F"
H        5.20971000      13.43231000      -4.55320000
O        5.00588000      12.73778000      -3.93407000
H        4.32458000      12.22560000      -4.36095000
H        4.63717000      10.33543000      -5.08744000
O        3.69176000      10.40813000      -5.25091000
H        3.63565000      10.70585000      -6.15025000
