6
Properties=species:S:1:pos:R:3 frame=T 25=T |=T Written=T by=T MDAnalysis=T XYZWriter=T (release=T 2.4.3)=T pbc="F F F"
H      -18.02454000      -2.98905000      -0.79516000
O      -17.75558000      -3.77678000      -0.31693000
H      -17.84012000      -4.50574000      -0.95845000
H      -15.79126000      -0.95158000      -0.60902000
O      -16.12839000      -1.57355000       0.04070000
H      -16.32070000      -2.36109000      -0.46617000
