6
Properties=species:S:1:pos:R:3 frame=T 51=T |=T Written=T by=T MDAnalysis=T XYZWriter=T (release=T 2.4.3)=T pbc="F F F"
H        3.86284000     -18.08608000       4.00370000
O        3.25473000     -18.47980000       4.62749000
H        3.10055000     -19.35798000       4.25466000
H        5.36970000     -18.80382000       2.35932000
O        5.45774000     -17.92981000       2.84841000
H        5.34763000     -17.27440000       2.13559000
