6
Properties=species:S:1:pos:R:3 frame=T 17=T |=T Written=T by=T MDAnalysis=T XYZWriter=T (release=T 2.4.3)=T pbc="F F F"
H        1.63555000       9.39467000     -17.78072000
O        2.29702000       8.84928000     -18.23336000
H        3.13460000       9.38996000     -18.18552000
H        1.30719000      10.27715000     -16.10623000
O        0.53421000       9.80651000     -16.40564000
H       -0.15905000      10.32166000     -16.01491000
