6
Properties=species:S:1:pos:R:3 frame=T 39=T |=T Written=T by=T MDAnalysis=T XYZWriter=T (release=T 2.4.3)=T pbc="F F F"
H        6.11846000       5.64522000      15.69640000
O        6.34035000       5.07202000      16.41649000
H        6.61963000       4.21880000      15.98543000
H        5.24492000       5.53370000      17.50330000
O        4.80683000       6.10898000      18.18602000
H        4.01223000       5.61662000      18.38991000
