6
Properties=species:S:1:pos:R:3 frame=T 51=T |=T Written=T by=T MDAnalysis=T XYZWriter=T (release=T 2.4.3)=T pbc="F F F"
H       13.83600000     -10.57034000       2.80571000
O       13.61853000     -10.11796000       3.63689000
H       14.45863000      -9.65329000       3.78054000
H       14.03095000     -11.79294000       4.29829000
O       14.55828000     -12.55236000       4.59682000
H       14.15015000     -12.86135000       5.42668000
