6
Properties=species:S:1:pos:R:3 frame=T 14=T |=T Written=T by=T MDAnalysis=T XYZWriter=T (release=T 2.4.3)=T pbc="F F F"
H        0.85032000       1.95068000      13.01022000
O        0.62741000       2.60892000      13.65021000
H        1.30144000       2.52728000      14.31477000
H       -1.89922000       3.65464000      15.04788000
O       -1.77233000       2.89877000      14.46480000
H       -0.79542000       2.75027000      14.39033000
