6
Properties=species:S:1:pos:R:3 frame=T 38=T |=T Written=T by=T MDAnalysis=T XYZWriter=T (release=T 2.4.3)=T pbc="F F F"
H       11.46848000     -12.45901000     -10.32335000
O       10.60575000     -12.03353000     -10.21506000
H       10.71615000     -11.61402000      -9.33579000
H       13.02829000     -13.66057000     -11.33097000
O       12.73703000     -13.43525000     -10.42389000
H       12.73257000     -14.29081000      -9.97508000
