6
Properties=species:S:1:pos:R:3 frame=T 32=T |=T Written=T by=T MDAnalysis=T XYZWriter=T (release=T 2.4.3)=T pbc="F F F"
H        4.13580000      17.75753000      10.05532000
O        3.88823000      18.68292000       9.91481000
H        3.83623000      19.06272000      10.79781000
H        2.20543000      18.77657000       9.00007000
O        1.45648000      18.53035000       8.49272000
H        1.48545000      19.18738000       7.81047000
