6
Properties=species:S:1:pos:R:3 frame=T 42=T |=T Written=T by=T MDAnalysis=T XYZWriter=T (release=T 2.4.3)=T pbc="F F F"
H       15.90149000      -5.23761000      -0.73377000
O       15.39474000      -5.60998000      -1.44967000
H       14.64652000      -4.98377000      -1.52605000
H       16.54506000      -4.68225000      -2.60781000
O       17.03892000      -4.53560000      -3.41300000
H       16.87605000      -3.59893000      -3.63609000
