6
Properties=species:S:1:pos:R:3 frame=T 21=T |=T Written=T by=T MDAnalysis=T XYZWriter=T (release=T 2.4.3)=T pbc="F F F"
H       -5.72049000      12.87613000      -5.45095000
O       -6.67334000      12.79986000      -5.75452000
H       -6.66973000      13.30140000      -6.60334000
H       -6.81254000      12.79573000      -8.74820000
O       -6.62182000      13.57541000      -8.18499000
H       -6.14959000      14.22292000      -8.77415000
