6
Properties=species:S:1:pos:R:3 frame=T 4=T |=T Written=T by=T MDAnalysis=T XYZWriter=T (release=T 2.4.3)=T pbc="F F F"
H       11.34110000       7.73590000      -2.25917000
O       11.65968000       7.20504000      -2.98751000
H       11.65341000       7.82677000      -3.75415000
H       11.61831000       4.53851000      -2.09156000
O       12.40834000       4.77243000      -2.57911000
H       12.37191000       5.74898000      -2.68145000
