6
Properties=species:S:1:pos:R:3 frame=T 42=T |=T Written=T by=T MDAnalysis=T XYZWriter=T (release=T 2.4.3)=T pbc="F F F"
H       -6.65575000      15.20958000     -12.96000000
O       -5.88599000      14.82311000     -12.51240000
H       -5.65833000      15.50186000     -11.86944000
H       -7.54344000      12.10267000     -13.45213000
O       -7.06337000      12.21414000     -12.63488000
H       -6.84347000      13.17308000     -12.64016000
