6
Properties=species:S:1:pos:R:3 frame=T 45=T |=T Written=T by=T MDAnalysis=T XYZWriter=T (release=T 2.4.3)=T pbc="F F F"
H        1.25734000      -8.34966000       9.70858000
O        2.21599000      -8.33034000       9.58412000
H        2.35687000      -7.82464000       8.78599000
H        0.36283000      -6.74060000       6.66180000
O        1.20424000      -6.87964000       7.10997000
H        1.21887000      -7.81666000       7.17008000
