6
Properties=species:S:1:pos:R:3 frame=T 12=T |=T Written=T by=T MDAnalysis=T XYZWriter=T (release=T 2.4.3)=T pbc="F F F"
H       13.31343000     -15.17509000       2.17279000
O       13.20323000     -15.64749000       1.34331000
H       13.76465000     -16.43999000       1.37166000
H       10.16817000     -16.52741000       1.50653000
O       10.97343000     -17.05522000       1.52153000
H       11.64835000     -16.45870000       1.84861000
