6
Properties=species:S:1:pos:R:3 frame=T 52=T |=T Written=T by=T MDAnalysis=T XYZWriter=T (release=T 2.4.3)=T pbc="F F F"
H      -18.02695000      18.33569000     -16.46626000
O      -17.12987000      18.66593000     -16.36898000
H      -16.64058000      18.25772000     -17.12044000
H      -15.95174000      19.23931000     -13.81015000
O      -15.83211000      18.32521000     -14.12173000
H      -16.40393000      18.27362000     -14.91966000
