6
Properties=species:S:1:pos:R:3 frame=T 53=T |=T Written=T by=T MDAnalysis=T XYZWriter=T (release=T 2.4.3)=T pbc="F F F"
H      -18.80847000      -3.67617000      15.01147000
O      -18.52225000      -3.60616000      14.08448000
H      -17.69879000      -4.10670000      14.09965000
H      -18.43752000      -1.84601000      14.82909000
O      -19.02121000      -1.11273000      15.05105000
H      -18.50105000      -0.34008000      15.15085000
