6
Properties=species:S:1:pos:R:3 frame=T 13=T |=T Written=T by=T MDAnalysis=T XYZWriter=T (release=T 2.4.3)=T pbc="F F F"
H      -16.78120000       3.15452000      18.11181000
O      -17.44701000       2.47805000      18.12681000
H      -17.94306000       2.60181000      17.29866000
H      -14.60391000       1.35148000      18.87156000
O      -14.80951000       1.19750000      17.92700000
H      -15.81057000       1.17243000      17.90397000
