6
Properties=species:S:1:pos:R:3 frame=T 1=T |=T Written=T by=T MDAnalysis=T XYZWriter=T (release=T 2.4.3)=T pbc="F F F"
H       15.97968000       1.90731000       7.16543000
O       16.77903000       2.37443000       6.92048000
H       17.04399000       2.91945000       7.65817000
H       19.51874000       0.97600000       5.91604000
O       19.09106000       1.83758000       5.99063000
H       18.19970000       1.60008000       6.28629000
