6
Properties=species:S:1:pos:R:3 frame=T 13=T |=T Written=T by=T MDAnalysis=T XYZWriter=T (release=T 2.4.3)=T pbc="F F F"
H      -16.62131000      16.87914000       2.14399000
O      -17.52849000      16.88150000       1.86134000
H      -17.39731000      16.83021000       0.91147000
H      -16.71772000      15.91684000      -1.29245000
O      -16.41414000      16.52974000      -0.60908000
H      -15.43949000      16.37889000      -0.59760000
