6
Properties=species:S:1:pos:R:3 frame=T 51=T |=T Written=T by=T MDAnalysis=T XYZWriter=T (release=T 2.4.3)=T pbc="F F F"
H       -7.04798000     -16.76728000       2.72657000
O       -7.93759000     -16.53702000       3.13828000
H       -7.76789000     -16.33686000       4.07595000
H       -8.77958000     -17.98744000       2.79716000
O       -9.01702000     -18.90190000       2.63743000
H       -9.53845000     -19.16138000       3.39937000
