6
Properties=species:S:1:pos:R:3 frame=T 14=T |=T Written=T by=T MDAnalysis=T XYZWriter=T (release=T 2.4.3)=T pbc="F F F"
H        6.00862000       5.45267000       0.31617000
O        5.29789000       5.79888000      -0.17984000
H        4.72041000       6.17694000       0.51846000
H        2.54325000       4.05966000       0.31867000
O        3.27299000       3.55385000      -0.03957000
H        3.97898000       4.19572000      -0.14496000
