6
Properties=species:S:1:pos:R:3 frame=T 25=T |=T Written=T by=T MDAnalysis=T XYZWriter=T (release=T 2.4.3)=T pbc="F F F"
H      -15.94975000     -16.94580000      16.91781000
O      -16.26520000     -16.27173000      16.29927000
H      -17.20602000     -16.21050000      16.46854000
H      -14.90426000     -16.59260000      15.01635000
O      -14.05725000     -16.96233000      14.78952000
H      -13.88393000     -17.66357000      15.42686000
