6
Properties=species:S:1:pos:R:3 frame=T 12=T |=T Written=T by=T MDAnalysis=T XYZWriter=T (release=T 2.4.3)=T pbc="F F F"
H        3.77816000      11.32330000      15.54741000
O        3.84465000      12.01746000      14.88645000
H        4.66782000      12.46773000      15.18544000
H        5.22640000      14.91645000      15.72669000
O        5.38294000      13.96418000      15.75425000
H        6.06437000      13.90039000      16.41689000
