6
Properties=species:S:1:pos:R:3 frame=T 40=T |=T Written=T by=T MDAnalysis=T XYZWriter=T (release=T 2.4.3)=T pbc="F F F"
H       -8.56876000     -18.67220000       2.08649000
O       -9.26533000     -18.02885000       1.84852000
H       -9.98722000     -18.42176000       2.32089000
H       -7.15456000     -18.34869000       0.35945000
O       -6.45653000     -18.08835000      -0.29004000
H       -6.88750000     -17.42904000      -0.77714000
