6
Properties=species:S:1:pos:R:3 frame=T 15=T |=T Written=T by=T MDAnalysis=T XYZWriter=T (release=T 2.4.3)=T pbc="F F F"
H        5.18265000     -13.99699000     -12.48966000
O        5.28736000     -13.42794000     -11.69304000
H        6.20524000     -13.58332000     -11.49934000
H        7.76345000     -12.51980000     -12.20516000
O        7.35882000     -11.66191000     -12.15064000
H        6.44793000     -11.85435000     -11.88192000
