6
Properties=species:S:1:pos:R:3 frame=T 17=T |=T Written=T by=T MDAnalysis=T XYZWriter=T (release=T 2.4.3)=T pbc="F F F"
H      -17.85493000       6.16315000       5.26063000
O      -17.87900000       5.41043000       5.89181000
H      -18.72171000       5.48566000       6.37334000
H      -18.21223000       6.04452000       3.44947000
O      -18.77427000       5.33543000       3.12867000
H      -18.90368000       4.82186000       3.95732000
