6
Properties=species:S:1:pos:R:3 frame=T 16=T |=T Written=T by=T MDAnalysis=T XYZWriter=T (release=T 2.4.3)=T pbc="F F F"
H       13.85168000       3.66489000     -11.48984000
O       14.54399000       3.85482000     -10.86131000
H       14.11620000       4.38524000     -10.17720000
H       12.93826000       2.29887000     -12.16831000
O       12.52254000       3.10631000     -12.53835000
H       12.11257000       3.54499000     -11.79699000
