6
Properties=species:S:1:pos:R:3 frame=T 42=T |=T Written=T by=T MDAnalysis=T XYZWriter=T (release=T 2.4.3)=T pbc="F F F"
H       -7.33237000      15.73673000       4.58344000
O       -8.13697000      15.92169000       4.04502000
H       -8.82510000      15.93797000       4.69743000
H       -5.05783000      15.56712000       4.64133000
O       -5.61474000      16.30767000       4.38742000
H       -5.53325000      16.35828000       3.47287000
