6
Properties=species:S:1:pos:R:3 frame=T 36=T |=T Written=T by=T MDAnalysis=T XYZWriter=T (release=T 2.4.3)=T pbc="F F F"
H       -2.89521000       5.09336000       4.84506000
O       -3.63559000       5.54486000       5.24427000
H       -3.22873000       5.63480000       6.08521000
H       -4.09764000       7.12993000       4.88938000
O       -4.59462000       7.90464000       4.56705000
H       -5.52406000       7.63204000       4.71026000
