6
Properties=species:S:1:pos:R:3 frame=T 31=T |=T Written=T by=T MDAnalysis=T XYZWriter=T (release=T 2.4.3)=T pbc="F F F"
H       14.92731000       5.56041000      12.86670000
O       14.82283000       6.45065000      12.53356000
H       14.43924000       6.91740000      13.29897000
H       15.63124000       8.00604000      12.24208000
O       15.86043000       8.93400000      12.42147000
H       15.30913000       9.45955000      11.82190000
