6
Properties=species:S:1:pos:R:3 frame=T 31=T |=T Written=T by=T MDAnalysis=T XYZWriter=T (release=T 2.4.3)=T pbc="F F F"
H       -0.75124000      -4.39267000      -4.33224000
O       -0.39689000      -4.51956000      -3.44226000
H       -0.16256000      -5.45168000      -3.34042000
H       -0.96415000      -3.38343000      -2.20305000
O       -1.36429000      -3.00861000      -1.40867000
H       -2.08129000      -3.61774000      -1.15280000
