6
Properties=species:S:1:pos:R:3 frame=T 43=T |=T Written=T by=T MDAnalysis=T XYZWriter=T (release=T 2.4.3)=T pbc="F F F"
H        0.82526000       9.48435000     -17.86171000
O        1.14490000       8.57280000     -17.86076000
H        1.89060000       8.58641000     -18.46290000
H       -0.11663000      11.72280000     -17.15895000
O        0.26839000      11.17647000     -17.87425000
H        1.18882000      11.38837000     -17.79865000
