6
Properties=species:S:1:pos:R:3 frame=T 16=T |=T Written=T by=T MDAnalysis=T XYZWriter=T (release=T 2.4.3)=T pbc="F F F"
H       -5.80520000       5.75284000     -11.47904000
O       -5.32487000       5.83781000     -10.61530000
H       -4.53239000       6.35987000     -10.84918000
H       -3.55262000       8.00445000     -11.66538000
O       -2.96146000       7.27096000     -11.42183000
H       -2.06719000       7.63749000     -11.59232000
