6
Properties=species:S:1:pos:R:3 frame=T 32=T |=T Written=T by=T MDAnalysis=T XYZWriter=T (release=T 2.4.3)=T pbc="F F F"
H        8.32526000      -8.63571000       6.25143000
O        7.99248000      -7.74076000       6.22041000
H        8.77435000      -7.21619000       6.38794000
H        8.27263000      -8.09340000       4.36907000
O        7.65595000      -8.34544000       3.66986000
H        8.14005000      -8.23864000       2.83495000
