6
Properties=species:S:1:pos:R:3 frame=T 31=T |=T Written=T by=T MDAnalysis=T XYZWriter=T (release=T 2.4.3)=T pbc="F F F"
H        1.54513000      16.27621000     -10.75666000
O        1.40829000      17.19471000     -10.41831000
H        1.52957000      17.69890000     -11.26116000
H        1.02163000      19.03751000     -13.29898000
O        1.73735000      18.55990000     -12.85344000
H        1.66920000      17.68112000     -13.26194000
