6
Properties=species:S:1:pos:R:3 frame=T 18=T |=T Written=T by=T MDAnalysis=T XYZWriter=T (release=T 2.4.3)=T pbc="F F F"
H      -17.53981000     -14.13851000     -12.02920000
O      -16.82147000     -13.56523000     -12.26868000
H      -17.33312000     -12.79390000     -12.57338000
H      -17.01286000     -10.50117000     -12.56112000
O      -17.89798000     -10.78872000     -12.82681000
H      -18.29251000     -11.03500000     -11.99666000
