6
Properties=species:S:1:pos:R:3 frame=T 19=T |=T Written=T by=T MDAnalysis=T XYZWriter=T (release=T 2.4.3)=T pbc="F F F"
H        6.12533000      15.63519000       0.54541000
O        6.33551000      16.10808000      -0.27611000
H        5.68695000      16.81185000      -0.39983000
H        3.85914000      18.59126000       0.26550000
O        4.21732000      17.70863000       0.21106000
H        3.44875000      17.13200000       0.18787000
