6
Properties=species:S:1:pos:R:3 frame=T 21=T |=T Written=T by=T MDAnalysis=T XYZWriter=T (release=T 2.4.3)=T pbc="F F F"
H       -1.73759000     -10.25400000      -9.69098000
O       -1.19098000     -11.04173000      -9.58489000
H       -0.36548000     -10.83541000     -10.03398000
H       -1.36902000     -12.53039000      -8.90312000
O       -1.44698000     -13.26900000      -8.29269000
H       -1.36766000     -14.06194000      -8.85331000
