6
Properties=species:S:1:pos:R:3 frame=T 29=T |=T Written=T by=T MDAnalysis=T XYZWriter=T (release=T 2.4.3)=T pbc="F F F"
H       -9.64693000      -2.76780000       9.55844000
O      -10.59604000      -2.73548000       9.73761000
H      -10.94077000      -2.08647000       9.12827000
H       -7.90790000      -2.47797000       8.54512000
O       -7.77010000      -2.07452000       9.40007000
H       -7.36593000      -2.76402000       9.91084000
