6
Properties=species:S:1:pos:R:3 frame=T 46=T |=T Written=T by=T MDAnalysis=T XYZWriter=T (release=T 2.4.3)=T pbc="F F F"
H        6.10831000     -11.83741000      -6.10612000
O        5.97800000     -12.43092000      -6.88024000
H        6.18345000     -13.31181000      -6.52039000
H        6.23357000     -14.09688000      -4.21450000
O        6.47275000     -14.56230000      -5.01602000
H        7.09246000     -15.21554000      -4.66865000
