6
Properties=species:S:1:pos:R:3 frame=T 7=T |=T Written=T by=T MDAnalysis=T XYZWriter=T (release=T 2.4.3)=T pbc="F F F"
H       10.22966000     -14.93665000     -13.08867000
O        9.38300000     -15.07887000     -13.53273000
H        9.24274000     -16.02515000     -13.50632000
H        7.61336000     -17.82635000     -13.38826000
O        8.48882000     -17.54182000     -13.63842000
H        9.03516000     -18.32106000     -13.45055000
