6
Properties=species:S:1:pos:R:3 frame=T 33=T |=T Written=T by=T MDAnalysis=T XYZWriter=T (release=T 2.4.3)=T pbc="F F F"
H       12.31821000       0.19637000     -16.57211000
O       12.67459000       1.09270000     -16.73458000
H       12.85954000       1.41375000     -15.84132000
H       12.95211000       1.56925000     -18.32037000
O       12.96385000       1.83640000     -19.24416000
H       13.31459000       2.73113000     -19.22909000
