6
Properties=species:S:1:pos:R:3 frame=T 10=T |=T Written=T by=T MDAnalysis=T XYZWriter=T (release=T 2.4.3)=T pbc="F F F"
H      -11.22835000      -2.38129000      11.51330000
O      -11.93512000      -2.05841000      12.09338000
H      -12.33351000      -2.84437000      12.42592000
H      -10.97982000      -3.89677000       9.90663000
O      -10.77872000      -3.04025000       9.53537000
H       -9.84904000      -3.11530000       9.20247000
