6
Properties=species:S:1:pos:R:3 frame=T 53=T |=T Written=T by=T MDAnalysis=T XYZWriter=T (release=T 2.4.3)=T pbc="F F F"
H        3.16357000       1.01420000      -4.95085000
O        3.66767000       1.83664000      -5.07704000
H        3.13774000       2.50066000      -4.62430000
H        3.22760000       1.93824000      -6.88475000
O        3.13667000       1.62963000      -7.77986000
H        4.03735000       1.29672000      -7.97050000
