6
Properties=species:S:1:pos:R:3 frame=T 48=T |=T Written=T by=T MDAnalysis=T XYZWriter=T (release=T 2.4.3)=T pbc="F F F"
H       -5.03424000       6.96860000     -15.39688000
O       -4.90649000       6.05296000     -15.16226000
H       -4.66854000       5.61269000     -15.98887000
H       -2.83904000       6.92066000     -15.40849000
O       -2.25981000       7.37944000     -16.05543000
H       -1.44955000       6.83970000     -16.14054000
