6
Properties=species:S:1:pos:R:3 frame=T 26=T |=T Written=T by=T MDAnalysis=T XYZWriter=T (release=T 2.4.3)=T pbc="F F F"
H        8.37034000      -5.56894000       5.71143000
O        7.69453000      -4.89337000       5.60201000
H        7.92614000      -4.34770000       6.39010000
H        7.70525000      -7.75154000       6.70981000
O        8.50833000      -7.29381000       6.47359000
H        9.05135000      -8.00908000       6.14566000
