6
Properties=species:S:1:pos:R:3 frame=T 28=T |=T Written=T by=T MDAnalysis=T XYZWriter=T (release=T 2.4.3)=T pbc="F F F"
H       15.36566000     -18.65561000       7.81690000
O       15.85976000     -18.38853000       7.04912000
H       15.17340000     -17.89032000       6.57032000
H       14.64875000     -17.09458000       4.34611000
O       15.00915000     -16.70185000       5.18773000
H       14.21989000     -16.50937000       5.71256000
