6
Properties=species:S:1:pos:R:3 frame=T 0=T |=T Written=T by=T MDAnalysis=T XYZWriter=T (release=T 2.4.3)=T pbc="F F F"
H      -17.02009000       0.64400000     -10.34333000
O      -16.85701000       1.44531000     -10.86305000
H      -17.27935000       1.28930000     -11.70887000
H      -17.15348000      -1.08918000     -13.71488000
O      -17.31328000      -0.39468000     -13.06537000
H      -16.77131000      -0.61808000     -12.29276000
