6
Properties=species:S:1:pos:R:3 frame=T 33=T |=T Written=T by=T MDAnalysis=T XYZWriter=T (release=T 2.4.3)=T pbc="F F F"
H       -2.89679000      -7.36226000     -15.40809000
O       -2.41388000      -7.52673000     -16.19794000
H       -1.56741000      -7.15282000     -16.02392000
H        0.68519000      -6.08188000     -16.05507000
O        0.27213000      -6.93336000     -16.15682000
H        0.43161000      -7.11835000     -17.07448000
