6
Properties=species:S:1:pos:R:3 frame=T 42=T |=T Written=T by=T MDAnalysis=T XYZWriter=T (release=T 2.4.3)=T pbc="F F F"
H        8.81785000      -8.96840000      -7.87429000
O        8.71756000      -9.10613000      -6.94897000
H        9.44701000      -8.62788000      -6.59767000
H       11.91534000      -7.89584000      -6.84989000
O       10.99083000      -7.62242000      -6.91867000
H       10.87507000      -6.88298000      -6.28250000
