6
Properties=species:S:1:pos:R:3 frame=T 15=T |=T Written=T by=T MDAnalysis=T XYZWriter=T (release=T 2.4.3)=T pbc="F F F"
H       -6.64906000      -4.71273000     -10.67088000
O       -7.19262000      -4.49672000      -9.87812000
H       -7.74691000      -5.28409000      -9.76445000
H       -4.75460000      -4.77344000     -11.92149000
O       -5.63392000      -4.41692000     -11.93750000
H       -5.47543000      -3.49443000     -12.23660000
