6
Properties=species:S:1:pos:R:3 frame=T 23=T |=T Written=T by=T MDAnalysis=T XYZWriter=T (release=T 2.4.3)=T pbc="F F F"
H       -9.57954000      -1.11017000      10.59788000
O       -9.73351000      -1.31189000       9.66325000
H       -9.16733000      -2.05855000       9.53885000
H      -10.98045000      -2.28099000       8.17635000
O      -10.59946000      -2.34587000       7.28647000
H      -10.39338000      -3.28535000       7.18229000
