6
Properties=species:S:1:pos:R:3 frame=T 3=T |=T Written=T by=T MDAnalysis=T XYZWriter=T (release=T 2.4.3)=T pbc="F F F"
H      -16.58704000     -13.89392000      -2.46961000
O      -15.77191000     -14.29631000      -2.17906000
H      -15.56574000     -13.93719000      -1.33025000
H      -17.29655000     -13.64322000       0.23893000
O      -16.39999000     -13.84970000       0.51257000
H      -16.24952000     -13.36179000       1.34946000
