6
Properties=species:S:1:pos:R:3 frame=T 14=T |=T Written=T by=T MDAnalysis=T XYZWriter=T (release=T 2.4.3)=T pbc="F F F"
H       10.89717000      15.56018000       3.53339000
O       10.94215000      15.05716000       4.37450000
H       10.89928000      14.13844000       4.10099000
H       12.50350000      16.05771000       4.34660000
O       12.95469000      16.80037000       3.94117000
H       13.87986000      16.56166000       3.90318000
