6
Properties=species:S:1:pos:R:3 frame=T 2=T |=T Written=T by=T MDAnalysis=T XYZWriter=T (release=T 2.4.3)=T pbc="F F F"
H      -15.36658000      -6.25693000     -13.31247000
O      -14.56193000      -6.76069000     -13.49342000
H      -14.84811000      -7.64552000     -13.74939000
H      -16.27843000      -4.98869000     -13.82570000
O      -15.90442000      -4.08180000     -13.94550000
H      -15.67983000      -3.96286000     -14.87559000
