6
Properties=species:S:1:pos:R:3 frame=T 46=T |=T Written=T by=T MDAnalysis=T XYZWriter=T (release=T 2.4.3)=T pbc="F F F"
H       -4.24733000     -10.87374000     -18.39923000
O       -4.18726000     -11.29064000     -17.53363000
H       -3.85495000     -10.56685000     -17.00757000
H       -4.04936000      -8.43876000     -16.20162000
O       -3.88019000      -8.49938000     -17.15262000
H       -3.77182000      -7.60362000     -17.36633000
