6
Properties=species:S:1:pos:R:3 frame=T 37=T |=T Written=T by=T MDAnalysis=T XYZWriter=T (release=T 2.4.3)=T pbc="F F F"
H      -11.62871000      -2.60402000     -13.21080000
O      -11.40127000      -2.37252000     -12.28798000
H      -11.55194000      -1.41199000     -12.25506000
H      -11.64975000       0.84672000     -12.01692000
O      -11.32771000       0.25311000     -11.34394000
H      -10.44456000       0.59047000     -11.20624000
