6
Properties=species:S:1:pos:R:3 frame=T 36=T |=T Written=T by=T MDAnalysis=T XYZWriter=T (release=T 2.4.3)=T pbc="F F F"
H       15.77438000     -11.17344000     -16.61537000
O       15.80988000     -12.09126000     -16.34951000
H       16.57547000     -12.15655000     -15.77923000
H       18.44024000     -13.33336000     -14.79748000
O       17.74248000     -12.96920000     -14.28302000
H       18.07980000     -12.10229000     -14.11003000
