6
Properties=species:S:1:pos:R:3 frame=T 28=T |=T Written=T by=T MDAnalysis=T XYZWriter=T (release=T 2.4.3)=T pbc="F F F"
H       19.15546000       3.62057000      18.00210000
O       18.54260000       3.86622000      17.25568000
H       18.60500000       3.04530000      16.74003000
H       16.98064000       3.33252000      15.00070000
O       17.19641000       2.46424000      15.35302000
H       16.68881000       2.41892000      16.16248000
