6
Properties=species:S:1:pos:R:3 frame=T 48=T |=T Written=T by=T MDAnalysis=T XYZWriter=T (release=T 2.4.3)=T pbc="F F F"
H       -9.02131000     -13.25181000      -7.41385000
O       -9.27381000     -14.17462000      -7.27829000
H       -9.77379000     -14.06003000      -6.45679000
H       -7.99260000     -14.78244000      -6.04323000
O       -7.18108000     -14.60398000      -5.50923000
H       -7.10531000     -15.40874000      -4.98414000
