6
Properties=species:S:1:pos:R:3 frame=T 36=T |=T Written=T by=T MDAnalysis=T XYZWriter=T (release=T 2.4.3)=T pbc="F F F"
H        2.97127000       0.04481000       0.50602000
O        3.48196000       0.45914000      -0.22674000
H        4.36669000       0.35674000       0.09890000
H        5.88831000      -0.93619000       1.96071000
O        5.60607000      -0.71385000       1.04978000
H        6.39295000      -0.54393000       0.52164000
