6
Properties=species:S:1:pos:R:3 frame=T 48=T |=T Written=T by=T MDAnalysis=T XYZWriter=T (release=T 2.4.3)=T pbc="F F F"
H       14.43384000       0.54185000      -5.01628000
O       15.20012000      -0.05337000      -4.87145000
H       14.76392000      -0.90838000      -4.81859000
H       16.72809000      -0.00134000      -4.08850000
O       17.34993000       0.00651000      -3.36429000
H       17.77898000       0.88432000      -3.44693000
