6
Properties=species:S:1:pos:R:3 frame=T 45=T |=T Written=T by=T MDAnalysis=T XYZWriter=T (release=T 2.4.3)=T pbc="F F F"
H        1.29569000     -18.16382000       1.48098000
O        1.05733000     -17.25631000       1.72478000
H        1.59395000     -17.07883000       2.50404000
H        2.25259000     -15.53605000       1.37965000
O        3.14043000     -15.41712000       0.95990000
H        3.23276000     -14.45417000       1.06390000
