6
Properties=species:S:1:pos:R:3 frame=T 0=T |=T Written=T by=T MDAnalysis=T XYZWriter=T (release=T 2.4.3)=T pbc="F F F"
H       13.92247000      -3.15952000     -13.36170000
O       12.97445000      -3.43812000     -13.37775000
H       12.99579000      -4.39567000     -13.47063000
H       12.46718000      -0.84801000     -14.34701000
O       11.60660000      -1.26150000     -14.17782000
H       11.91284000      -2.07358000     -13.75907000
