6
Properties=species:S:1:pos:R:3 frame=T 50=T |=T Written=T by=T MDAnalysis=T XYZWriter=T (release=T 2.4.3)=T pbc="F F F"
H        4.04597000     -13.86274000       6.66334000
O        3.96969000     -14.58364000       6.02747000
H        4.24615000     -15.36469000       6.51472000
H        5.03753000     -17.33302000       7.92190000
O        4.81885000     -16.39328000       7.93483000
H        5.16872000     -16.11336000       8.77172000
