6
Properties=species:S:1:pos:R:3 frame=T 53=T |=T Written=T by=T MDAnalysis=T XYZWriter=T (release=T 2.4.3)=T pbc="F F F"
H       -3.90579000       3.10773000      16.59513000
O       -3.48778000       3.21788000      17.46383000
H       -2.58963000       3.57801000      17.28078000
H       -3.48404000       6.52194000      17.79001000
O       -3.30840000       5.92347000      18.54533000
H       -3.29379000       5.05094000      18.10412000
