6
Properties=species:S:1:pos:R:3 frame=T 20=T |=T Written=T by=T MDAnalysis=T XYZWriter=T (release=T 2.4.3)=T pbc="F F F"
H        6.62603000     -15.71487000      -6.50113000
O        6.80508000     -16.53511000      -6.03454000
H        6.25017000     -16.33438000      -5.27891000
H        4.40734000     -16.77914000      -3.28032000
O        4.50702000     -16.54197000      -4.21471000
H        4.82622000     -17.37305000      -4.57714000
