6
Properties=species:S:1:pos:R:3 frame=T 20=T |=T Written=T by=T MDAnalysis=T XYZWriter=T (release=T 2.4.3)=T pbc="F F F"
H       -3.08851000      -9.31700000      14.96624000
O       -3.77367000      -8.70156000      15.27264000
H       -4.46833000      -8.78945000      14.63079000
H       -5.88314000      -9.46624000      13.20189000
O       -5.97352000      -8.67494000      13.73734000
H       -6.71443000      -8.20424000      13.31847000
