6
Properties=species:S:1:pos:R:3 frame=T 46=T |=T Written=T by=T MDAnalysis=T XYZWriter=T (release=T 2.4.3)=T pbc="F F F"
H      -17.50578000      11.79215000       7.84237000
O      -16.77969000      12.02347000       8.43876000
H      -16.46441000      11.19617000       8.76865000
H      -16.07117000      11.57913000       6.57822000
O      -15.74695000      10.75486000       6.19322000
H      -15.12329000      10.43965000       6.85215000
