6
Properties=species:S:1:pos:R:3 frame=T 0=T |=T Written=T by=T MDAnalysis=T XYZWriter=T (release=T 2.4.3)=T pbc="F F F"
H      -16.98393000      15.38371000     -11.80751000
O      -17.15508000      14.81410000     -12.58989000
H      -17.02119000      13.87899000     -12.32603000
H      -15.35029000      15.03096000     -10.51586000
O      -16.20078000      15.06602000     -10.05752000
H      -16.37314000      14.14186000      -9.79675000
