6
Properties=species:S:1:pos:R:3 frame=T 9=T |=T Written=T by=T MDAnalysis=T XYZWriter=T (release=T 2.4.3)=T pbc="F F F"
H        1.62315000     -14.47085000      12.92664000
O        2.12275000     -13.84846000      13.49453000
H        2.20514000     -13.08723000      12.91411000
H        2.88195000     -14.20650000      15.11022000
O        2.96392000     -14.61842000      15.94585000
H        2.51994000     -15.47606000      15.84121000
