6
Properties=species:S:1:pos:R:3 frame=T 32=T |=T Written=T by=T MDAnalysis=T XYZWriter=T (release=T 2.4.3)=T pbc="F F F"
H      -15.87450000      -5.56908000      -5.10055000
O      -15.01036000      -5.85970000      -4.73546000
H      -15.25686000      -6.09456000      -3.85461000
H      -15.96226000      -9.30425000      -4.31449000
O      -15.60014000      -8.69248000      -4.97818000
H      -15.76725000      -7.79269000      -4.62156000
