6
Properties=species:S:1:pos:R:3 frame=T 10=T |=T Written=T by=T MDAnalysis=T XYZWriter=T (release=T 2.4.3)=T pbc="F F F"
H       -7.33561000       8.72576000       5.38059000
O       -6.77702000       8.29884000       4.69594000
H       -6.05953000       8.95448000       4.61939000
H       -4.35664000      10.44048000       3.96781000
O       -4.72165000       9.55974000       3.79720000
H       -5.14300000       9.67417000       2.94245000
