6
Properties=species:S:1:pos:R:3 frame=T 8=T |=T Written=T by=T MDAnalysis=T XYZWriter=T (release=T 2.4.3)=T pbc="F F F"
H      -18.19192000     -15.46297000      -5.71029000
O      -18.42162000     -14.63139000      -5.34736000
H      -17.99058000     -13.99983000      -5.91965000
H      -18.30143000     -12.12535000      -7.15037000
O      -17.59664000     -12.82013000      -7.20498000
H      -16.85015000     -12.29755000      -7.53261000
