6
Properties=species:S:1:pos:R:3 frame=T 30=T |=T Written=T by=T MDAnalysis=T XYZWriter=T (release=T 2.4.3)=T pbc="F F F"
H        8.22317000     -16.18601000     -11.83130000
O        8.72375000     -15.35807000     -11.89823000
H        9.47453000     -15.47788000     -11.30996000
H        8.90424000     -13.68452000     -11.27147000
O        9.42069000     -12.89771000     -11.01113000
H        9.50410000     -12.34224000     -11.79427000
