6
Properties=species:S:1:pos:R:3 frame=T 16=T |=T Written=T by=T MDAnalysis=T XYZWriter=T (release=T 2.4.3)=T pbc="F F F"
H      -14.48637000     -10.71033000      -2.35001000
O      -13.50698000     -10.67144000      -2.34464000
H      -13.30026000     -10.77274000      -1.41706000
H      -13.46414000     -10.26168000       0.42340000
O      -12.88253000     -11.02544000       0.30093000
H      -12.52958000     -11.07955000       1.21548000
