6
Properties=species:S:1:pos:R:3 frame=T 34=T |=T Written=T by=T MDAnalysis=T XYZWriter=T (release=T 2.4.3)=T pbc="F F F"
H       18.79798000      18.11263000       6.75715000
O       18.50100000      18.99915000       6.61212000
H       19.06508000      19.54500000       7.16651000
H       18.56726000      15.99397000       7.05423000
O       19.19384000      16.47615000       6.48693000
H       18.89322000      16.18520000       5.62580000
