6
Properties=species:S:1:pos:R:3 frame=T 49=T |=T Written=T by=T MDAnalysis=T XYZWriter=T (release=T 2.4.3)=T pbc="F F F"
H      -18.44047000      -7.60637000      15.90061000
O      -17.92871000      -7.25283000      16.63966000
H      -17.62063000      -6.40360000      16.27928000
H      -17.17264000      -3.99330000      15.95329000
O      -17.65409000      -4.81873000      15.76228000
H      -18.59320000      -4.54133000      15.81218000
