6
Properties=species:S:1:pos:R:3 frame=T 54=T |=T Written=T by=T MDAnalysis=T XYZWriter=T (release=T 2.4.3)=T pbc="F F F"
H      -15.09242000      18.41414000       8.97323000
O      -14.16768000      18.18378000       9.03914000
H      -13.75127000      18.88774000       8.57877000
H      -11.12647000      18.11315000       9.87823000
O      -11.69306000      17.56582000      10.41473000
H      -12.54266000      18.01610000      10.31272000
