6
Properties=species:S:1:pos:R:3 frame=T 23=T |=T Written=T by=T MDAnalysis=T XYZWriter=T (release=T 2.4.3)=T pbc="F F F"
H       15.24640000       5.47127000      14.07879000
O       15.72721000       5.81202000      14.82890000
H       16.06581000       5.02948000      15.24466000
H       16.64207000       7.25438000      15.06076000
O       17.31988000       7.90003000      15.16877000
H       17.18004000       8.55494000      14.54583000
