6
Properties=species:S:1:pos:R:3 frame=T 14=T |=T Written=T by=T MDAnalysis=T XYZWriter=T (release=T 2.4.3)=T pbc="F F F"
H       15.24091000      12.51608000     -11.34131000
O       15.26466000      13.29436000     -11.88146000
H       15.62944000      13.91350000     -11.23520000
H       17.67628000      12.76118000     -13.96978000
O       16.80339000      12.46511000     -14.18854000
H       16.23781000      12.85226000     -13.47721000
