6
Properties=species:S:1:pos:R:3 frame=T 1=T |=T Written=T by=T MDAnalysis=T XYZWriter=T (release=T 2.4.3)=T pbc="F F F"
H        6.47080000     -18.01804000     -15.42556000
O        6.70335000     -17.11125000     -15.78096000
H        6.01484000     -16.95720000     -16.43940000
H        4.51334000     -16.17609000     -17.94559000
O        4.56464000     -16.63443000     -17.09539000
H        3.76440000     -16.34136000     -16.63936000
