6
Properties=species:S:1:pos:R:3 frame=T 53=T |=T Written=T by=T MDAnalysis=T XYZWriter=T (release=T 2.4.3)=T pbc="F F F"
H      -17.96426000      -7.11143000      -5.27011000
O      -18.15480000      -6.16243000      -5.30476000
H      -17.47777000      -5.82198000      -5.90205000
H      -19.41511000      -8.79077000      -4.71521000
O      -18.46278000      -8.68227000      -4.76788000
H      -18.20083000      -8.96422000      -3.87352000
