6
Properties=species:S:1:pos:R:3 frame=T 28=T |=T Written=T by=T MDAnalysis=T XYZWriter=T (release=T 2.4.3)=T pbc="F F F"
H       -0.49560000      10.16322000      12.67731000
O       -0.39036000       9.26841000      13.05360000
H       -1.30680000       8.99159000      13.09135000
H       -0.39370000       7.41050000      12.28612000
O       -0.25731000       6.83852000      11.54014000
H       -0.85595000       6.09866000      11.71288000
