6
Properties=species:S:1:pos:R:3 frame=T 0=T |=T Written=T by=T MDAnalysis=T XYZWriter=T (release=T 2.4.3)=T pbc="F F F"
H      -11.16268000       2.02881000     -11.00952000
O      -11.85635000       1.45294000     -11.33926000
H      -12.60811000       2.04080000     -11.19211000
H      -11.87746000      -0.00323000     -12.44437000
O      -11.50228000      -0.86443000     -12.64857000
H      -10.66682000      -0.88238000     -12.16634000
