6
Properties=species:S:1:pos:R:3 frame=T 11=T |=T Written=T by=T MDAnalysis=T XYZWriter=T (release=T 2.4.3)=T pbc="F F F"
H      -16.16329000      -2.02936000     -10.03295000
O      -17.06811000      -2.31512000     -10.27136000
H      -17.24483000      -1.75455000     -11.05485000
H      -16.77242000      -2.06593000     -13.00763000
O      -16.91025000      -1.10685000     -13.04972000
H      -17.35203000      -0.99682000     -13.92916000
