6
Properties=species:S:1:pos:R:3 frame=T 30=T |=T Written=T by=T MDAnalysis=T XYZWriter=T (release=T 2.4.3)=T pbc="F F F"
H       -8.68940000     -13.12918000     -18.39577000
O       -9.39157000     -12.70704000     -17.90379000
H       -9.72797000     -13.43753000     -17.36686000
H       -7.64657000     -11.12605000     -15.71065000
O       -8.21836000     -10.62578000     -16.32333000
H       -8.35193000     -11.29313000     -17.02870000
