6
Properties=species:S:1:pos:R:3 frame=T 12=T |=T Written=T by=T MDAnalysis=T XYZWriter=T (release=T 2.4.3)=T pbc="F F F"
H        1.27600000     -10.27883000     -17.64943000
O        0.92241000     -11.18736000     -17.69478000
H        1.22504000     -11.48755000     -18.55817000
H        1.95187000      -8.70030000     -16.73210000
O        1.79207000      -8.62548000     -17.69744000
H        1.78593000      -7.67219000     -17.75396000
