6
Properties=species:S:1:pos:R:3 frame=T 41=T |=T Written=T by=T MDAnalysis=T XYZWriter=T (release=T 2.4.3)=T pbc="F F F"
H      -16.26844000     -13.83875000       6.03407000
O      -16.32340000     -14.79454000       6.12237000
H      -15.56772000     -15.05904000       6.60618000
H      -16.48636000     -14.37213000       8.28438000
O      -16.79585000     -13.60136000       8.78573000
H      -16.23379000     -13.63444000       9.57911000
