6
Properties=species:S:1:pos:R:3 frame=T 2=T |=T Written=T by=T MDAnalysis=T XYZWriter=T (release=T 2.4.3)=T pbc="F F F"
H       10.40749000      13.02907000      -4.39793000
O       10.28579000      13.45024000      -5.25292000
H       10.63970000      12.79403000      -5.83945000
H        8.75675000      12.18274000      -4.23955000
O        7.83535000      12.17009000      -4.46528000
H        7.45909000      11.68322000      -3.71742000
