6
Properties=species:S:1:pos:R:3 frame=T 26=T |=T Written=T by=T MDAnalysis=T XYZWriter=T (release=T 2.4.3)=T pbc="F F F"
H        9.24058000      -2.70661000     -11.22642000
O        8.94800000      -3.61244000     -11.08384000
H        9.00895000      -3.78451000     -10.13725000
H        8.50484000      -3.35884000      -7.56390000
O        8.29368000      -2.98061000      -8.42028000
H        8.83738000      -2.20179000      -8.47161000
