6
Properties=species:S:1:pos:R:3 frame=T 50=T |=T Written=T by=T MDAnalysis=T XYZWriter=T (release=T 2.4.3)=T pbc="F F F"
H       13.45551000      -9.74234000      11.40474000
O       13.46883000     -10.70510000      11.55366000
H       12.51440000     -10.91269000      11.48422000
H       15.30833000     -13.08471000      10.98584000
O       14.97923000     -12.79636000      11.82334000
H       14.48048000     -12.00101000      11.57618000
