6
Properties=species:S:1:pos:R:3 frame=T 17=T |=T Written=T by=T MDAnalysis=T XYZWriter=T (release=T 2.4.3)=T pbc="F F F"
H       -7.11172000       1.07301000     -12.06559000
O       -6.17448000       0.83324000     -11.88697000
H       -5.72218000       1.69605000     -12.03173000
H       -5.94622000      -0.87027000     -12.05286000
O       -5.68915000      -1.70477000     -12.49578000
H       -4.88084000      -1.50166000     -13.03448000
