6
Properties=species:S:1:pos:R:3 frame=T 39=T |=T Written=T by=T MDAnalysis=T XYZWriter=T (release=T 2.4.3)=T pbc="F F F"
H      -10.89100000       9.60438000       0.32762000
O      -11.46507000       9.40259000      -0.41745000
H      -11.15469000       8.52411000      -0.71230000
H      -10.70710000      10.42997000       2.18832000
O      -11.60932000      10.72099000       2.33107000
H      -11.78311000      11.26572000       1.55120000
