6
Properties=species:S:1:pos:R:3 frame=T 36=T |=T Written=T by=T MDAnalysis=T XYZWriter=T (release=T 2.4.3)=T pbc="F F F"
H       14.90964000      -7.39518000      12.68090000
O       15.22572000      -6.56352000      13.08018000
H       15.35707000      -6.84675000      14.00255000
H       16.79050000      -6.27299000      12.22879000
O       17.55193000      -6.46113000      11.65656000
H       17.16227000      -6.50159000      10.78330000
