6
Properties=species:S:1:pos:R:3 frame=T 22=T |=T Written=T by=T MDAnalysis=T XYZWriter=T (release=T 2.4.3)=T pbc="F F F"
H      -12.88614000     -11.71933000     -15.13446000
O      -12.96895000     -10.84307000     -14.77308000
H      -12.88418000     -11.10752000     -13.82578000
H      -15.90447000      -9.57070000     -15.56859000
O      -14.99221000      -9.27562000     -15.65804000
H      -14.48481000      -9.89846000     -15.11414000
