6
Properties=species:S:1:pos:R:3 frame=T 15=T |=T Written=T by=T MDAnalysis=T XYZWriter=T (release=T 2.4.3)=T pbc="F F F"
H      -18.49958000       0.43868000      10.24614000
O      -17.68540000       0.34257000      10.75617000
H      -17.77792000      -0.52456000      11.15732000
H      -16.53873000       1.78960000      10.72360000
O      -15.94043000       2.44933000      10.32138000
H      -15.57222000       1.90967000       9.59033000
