6
Properties=species:S:1:pos:R:3 frame=T 42=T |=T Written=T by=T MDAnalysis=T XYZWriter=T (release=T 2.4.3)=T pbc="F F F"
H      -14.20258000      17.46722000       3.49976000
O      -14.96071000      17.65226000       2.96742000
H      -14.59798000      18.17754000       2.25065000
H      -15.68674000      16.02432000       2.37321000
O      -16.12237000      15.22699000       2.68020000
H      -16.14605000      14.70933000       1.86156000
