6
Properties=species:S:1:pos:R:3 frame=T 31=T |=T Written=T by=T MDAnalysis=T XYZWriter=T (release=T 2.4.3)=T pbc="F F F"
H       12.35147000      -9.60717000      -2.60028000
O       11.84377000      -8.83753000      -2.87920000
H       12.33221000      -8.12801000      -2.44215000
H       11.59299000      -8.72515000      -4.81165000
O       11.12262000      -8.63671000      -5.61940000
H       10.21457000      -8.68702000      -5.28327000
