6
Properties=species:S:1:pos:R:3 frame=T 18=T |=T Written=T by=T MDAnalysis=T XYZWriter=T (release=T 2.4.3)=T pbc="F F F"
H      -10.64316000      -3.21703000       0.37129000
O      -10.75922000      -3.93343000       0.98203000
H      -11.28769000      -4.59501000       0.50815000
H      -10.94467000      -1.99395000       1.92280000
O      -10.50720000      -1.15711000       2.14090000
H       -9.69094000      -1.23088000       1.61620000
