6
Properties=species:S:1:pos:R:3 frame=T 21=T |=T Written=T by=T MDAnalysis=T XYZWriter=T (release=T 2.4.3)=T pbc="F F F"
H       -9.75846000     -15.00209000       1.71980000
O       -9.42853000     -14.29010000       1.15206000
H       -9.46933000     -13.55680000       1.76941000
H      -11.69418000     -14.90177000      -1.17030000
O      -11.29222000     -15.26041000      -0.36352000
H      -10.58556000     -14.57239000      -0.25143000
