6
Properties=species:S:1:pos:R:3 frame=T 4=T |=T Written=T by=T MDAnalysis=T XYZWriter=T (release=T 2.4.3)=T pbc="F F F"
H       14.58864000      -4.47198000      -4.91630000
O       15.05394000      -3.61883000      -4.94332000
H       15.69641000      -3.63845000      -4.21464000
H       16.55470000      -3.89189000      -2.64010000
O       17.25727000      -3.99323000      -3.32472000
H       17.94503000      -3.44321000      -2.94153000
