6
Properties=species:S:1:pos:R:3 frame=T 33=T |=T Written=T by=T MDAnalysis=T XYZWriter=T (release=T 2.4.3)=T pbc="F F F"
H       15.64491000      10.71092000      -1.51526000
O       15.59750000      11.49387000      -1.00689000
H       15.71415000      12.17661000      -1.67909000
H       17.61822000      12.24165000       1.42797000
O       16.93569000      12.67574000       0.88530000
H       16.77881000      11.97892000       0.24762000
