6
Properties=species:S:1:pos:R:3 frame=T 44=T |=T Written=T by=T MDAnalysis=T XYZWriter=T (release=T 2.4.3)=T pbc="F F F"
H       13.62881000     -13.81732000     -12.47551000
O       12.77119000     -13.76503000     -12.92670000
H       12.40006000     -14.58379000     -12.54351000
H       11.64195000     -12.94562000     -14.26237000
O       11.01718000     -13.12033000     -14.99949000
H       10.92059000     -14.05556000     -15.00916000
