6
Properties=species:S:1:pos:R:3 frame=T 20=T |=T Written=T by=T MDAnalysis=T XYZWriter=T (release=T 2.4.3)=T pbc="F F F"
H      -11.63404000      -4.81698000      -5.88955000
O      -11.82210000      -5.49772000      -6.54763000
H      -12.39406000      -6.09305000      -6.04522000
H      -15.06013000      -3.89978000      -6.34107000
O      -14.49216000      -4.41446000      -6.92266000
H      -13.73155000      -4.63677000      -6.41874000
