6
Properties=species:S:1:pos:R:3 frame=T 46=T |=T Written=T by=T MDAnalysis=T XYZWriter=T (release=T 2.4.3)=T pbc="F F F"
H       17.04569000       8.89071000     -17.25771000
O       17.34061000       7.98597000     -17.13122000
H       17.60034000       8.00468000     -16.20910000
H       15.46950000       9.92110000     -17.56452000
O       14.68404000       9.43849000     -17.39761000
H       14.51047000       8.97368000     -18.22634000
