6
Properties=species:S:1:pos:R:3 frame=T 2=T |=T Written=T by=T MDAnalysis=T XYZWriter=T (release=T 2.4.3)=T pbc="F F F"
H       18.26974000      -4.72613000     -17.75192000
O       18.36979000      -5.69220000     -17.94814000
H       18.41259000      -5.66175000     -18.94890000
H       19.13995000      -3.13479000     -17.19523000
O       18.29547000      -3.29449000     -16.72979000
H       17.75557000      -2.52941000     -16.91265000
