6
Properties=species:S:1:pos:R:3 frame=T 20=T |=T Written=T by=T MDAnalysis=T XYZWriter=T (release=T 2.4.3)=T pbc="F F F"
H       -1.65082000      -4.18267000      18.34328000
O       -1.56915000      -5.13944000      18.53020000
H       -2.17619000      -5.31574000      19.28296000
H        0.06405000      -3.62407000      17.45177000
O        0.33947000      -3.83390000      16.52775000
H       -0.53342000      -3.89917000      16.05560000
