6
Properties=species:S:1:pos:R:3 frame=T 18=T |=T Written=T by=T MDAnalysis=T XYZWriter=T (release=T 2.4.3)=T pbc="F F F"
H      -12.99501000      -6.69513000      12.62525000
O      -13.42336000      -6.12756000      11.96221000
H      -14.11405000      -6.71723000      11.55580000
H      -12.66792000      -4.66090000      11.56039000
O      -12.10840000      -3.87612000      11.68019000
H      -11.31818000      -4.22282000      12.12126000
