6
Properties=species:S:1:pos:R:3 frame=T 13=T |=T Written=T by=T MDAnalysis=T XYZWriter=T (release=T 2.4.3)=T pbc="F F F"
H      -18.16337000      -5.03526000      -8.65906000
O      -18.36133000      -5.96717000      -8.73104000
H      -17.97549000      -6.35316000      -7.92610000
H      -18.70825000      -8.14694000     -10.58565000
O      -18.23740000      -7.44168000     -11.05113000
H      -18.32512000      -6.68310000     -10.44656000
