6
Properties=species:S:1:pos:R:3 frame=T 4=T |=T Written=T by=T MDAnalysis=T XYZWriter=T (release=T 2.4.3)=T pbc="F F F"
H        9.11744000       9.76002000       8.42385000
O        9.60446000       9.53632000       7.60257000
H        9.19903000       8.72131000       7.28302000
H        9.75477000      10.31077000      10.26671000
O        8.79054000      10.29230000      10.11124000
H        8.61234000      11.22960000      10.02265000
