6
Properties=species:S:1:pos:R:3 frame=T 16=T |=T Written=T by=T MDAnalysis=T XYZWriter=T (release=T 2.4.3)=T pbc="F F F"
H      -19.34549000     -14.56159000       6.97540000
O      -18.77241000     -13.76414000       7.08562000
H      -18.47641000     -13.60758000       6.18506000
H      -17.78029000     -16.73589000       7.86990000
O      -17.99320000     -16.72523000       6.93673000
H      -17.93159000     -17.61492000       6.62595000
