6
Properties=species:S:1:pos:R:3 frame=T 5=T |=T Written=T by=T MDAnalysis=T XYZWriter=T (release=T 2.4.3)=T pbc="F F F"
H        4.66813000      11.48862000      10.55860000
O        5.01921000      11.63332000      11.43780000
H        4.82633000      12.57903000      11.58153000
H        5.23867000       9.11707000       8.65173000
O        4.87081000       9.99523000       8.75991000
H        5.36643000      10.58365000       8.17943000
