6
Properties=species:S:1:pos:R:3 frame=T 18=T |=T Written=T by=T MDAnalysis=T XYZWriter=T (release=T 2.4.3)=T pbc="F F F"
H        7.26910000       5.96471000     -17.33302000
O        6.37232000       6.22840000     -17.56465000
H        6.01532000       5.60081000     -18.21058000
H        4.45296000       7.64598000     -17.86906000
O        4.03866000       8.37985000     -18.28016000
H        4.72369000       9.05643000     -18.25815000
