6
Properties=species:S:1:pos:R:3 frame=T 30=T |=T Written=T by=T MDAnalysis=T XYZWriter=T (release=T 2.4.3)=T pbc="F F F"
H       17.03470000      12.31233000     -13.31810000
O       16.95246000      11.96573000     -14.22786000
H       15.99308000      11.86684000     -14.32800000
H       17.37068000       9.84032000     -11.88136000
O       18.26123000       9.50238000     -12.10107000
H       18.66038000      10.27630000     -12.54007000
