6
Properties=species:S:1:pos:R:3 frame=T 29=T |=T Written=T by=T MDAnalysis=T XYZWriter=T (release=T 2.4.3)=T pbc="F F F"
H      -17.70203000       5.92416000      16.41554000
O      -16.75600000       5.69987000      16.21062000
H      -16.75547000       5.21074000      15.36255000
H      -18.83910000       6.04645000      14.34966000
O      -18.44299000       6.14037000      13.46645000
H      -17.59198000       5.66194000      13.54864000
