6
Properties=species:S:1:pos:R:3 frame=T 0=T |=T Written=T by=T MDAnalysis=T XYZWriter=T (release=T 2.4.3)=T pbc="F F F"
H      -18.04772000       1.00193000      -0.91451000
O      -17.82243000       0.91655000       0.02575000
H      -17.37078000       0.04807000       0.08863000
H      -15.78669000       0.61816000      -2.05761000
O      -16.33359000       0.27074000      -2.78166000
H      -17.25796000       0.41653000      -2.41726000
