6
Properties=species:S:1:pos:R:3 frame=T 20=T |=T Written=T by=T MDAnalysis=T XYZWriter=T (release=T 2.4.3)=T pbc="F F F"
H       -4.45867000      -5.72529000     -11.48113000
O       -4.14088000      -5.71191000     -10.60183000
H       -4.65457000      -5.00160000     -10.20765000
H       -3.24508000      -2.19700000      -9.04618000
O       -2.96487000      -3.08455000      -8.79546000
H       -3.83277000      -3.54580000      -8.69808000
