6
Properties=species:S:1:pos:R:3 frame=T 16=T |=T Written=T by=T MDAnalysis=T XYZWriter=T (release=T 2.4.3)=T pbc="F F F"
H      -13.12720000      15.75340000       9.80792000
O      -13.34144000      14.94789000       9.30146000
H      -14.27397000      14.81840000       9.37425000
H      -12.55382000      17.53278000      11.02210000
O      -12.72891000      17.38111000      10.09249000
H      -12.70098000      18.28814000       9.73279000
