6
Properties=species:S:1:pos:R:3 frame=T 48=T |=T Written=T by=T MDAnalysis=T XYZWriter=T (release=T 2.4.3)=T pbc="F F F"
H        1.57021000       6.18841000       1.11263000
O        0.85105000       6.84851000       1.05659000
H        0.19181000       6.61266000       1.71768000
H       -0.50262000       5.45202000      -1.51009000
O       -1.06671000       5.43701000      -0.73241000
H       -0.50733000       5.74340000       0.01780000
