6
Properties=species:S:1:pos:R:3 frame=T 0=T |=T Written=T by=T MDAnalysis=T XYZWriter=T (release=T 2.4.3)=T pbc="F F F"
H       -4.72365000      -6.75966000      11.56401000
O       -5.38714000      -6.35815000      12.16122000
H       -6.24634000      -6.39901000      11.72028000
H       -4.61795000      -4.85786000      12.82552000
O       -4.79642000      -4.06490000      13.36783000
H       -4.31374000      -4.19603000      14.20724000
