6
Properties=species:S:1:pos:R:3 frame=T 16=T |=T Written=T by=T MDAnalysis=T XYZWriter=T (release=T 2.4.3)=T pbc="F F F"
H       -4.19735000       3.15583000      15.33068000
O       -3.38283000       3.46140000      14.90610000
H       -3.64355000       4.17608000      14.31690000
H       -3.76106000       4.85358000      11.45311000
O       -3.70570000       4.10632000      12.08967000
H       -4.52183000       4.12606000      12.59074000
