6
Properties=species:S:1:pos:R:3 frame=T 40=T |=T Written=T by=T MDAnalysis=T XYZWriter=T (release=T 2.4.3)=T pbc="F F F"
H       12.54712000     -12.94139000       3.17354000
O       13.39949000     -12.58703000       2.91293000
H       13.68359000     -13.22534000       2.25270000
H       14.31638000     -13.97517000       3.99121000
O       14.86821000     -14.54852000       4.56665000
H       14.55108000     -14.44139000       5.47277000
