6
Properties=species:S:1:pos:R:3 frame=T 43=T |=T Written=T by=T MDAnalysis=T XYZWriter=T (release=T 2.4.3)=T pbc="F F F"
H        8.38412000      -8.48373000      15.50293000
O        8.56314000      -8.73001000      16.41540000
H        9.14908000      -9.48353000      16.27696000
H        7.74882000     -10.24719000      17.19405000
O        7.74280000     -11.01757000      17.82810000
H        7.10533000     -10.89624000      18.56920000
