6
Properties=species:S:1:pos:R:3 frame=T 41=T |=T Written=T by=T MDAnalysis=T XYZWriter=T (release=T 2.4.3)=T pbc="F F F"
H      -14.32464000      16.19444000     -10.64023000
O      -13.78012000      16.84500000     -10.11828000
H      -14.22701000      16.94543000      -9.31150000
H      -12.49444000      16.89514000     -11.37268000
O      -11.87614000      16.39415000     -11.83111000
H      -12.28640000      16.33279000     -12.71652000
