6
Properties=species:S:1:pos:R:3 frame=T 28=T |=T Written=T by=T MDAnalysis=T XYZWriter=T (release=T 2.4.3)=T pbc="F F F"
H        8.23624000      -0.15859000       1.81562000
O        9.04911000       0.36666000       1.71735000
H        9.75881000      -0.26622000       1.82042000
H        7.45861000      -0.22766000      -1.42742000
O        8.05930000      -0.34564000      -0.67090000
H        8.06296000       0.53237000      -0.24239000
