6
Properties=species:S:1:pos:R:3 frame=T 16=T |=T Written=T by=T MDAnalysis=T XYZWriter=T (release=T 2.4.3)=T pbc="F F F"
H       -6.69079000     -12.55136000       3.77142000
O       -6.90475000     -12.56077000       2.81652000
H       -7.81896000     -12.77004000       2.86171000
H       -5.20328000     -10.00746000       2.78575000
O       -5.91184000      -9.74772000       3.41417000
H       -6.54087000     -10.50381000       3.46951000
