6
Properties=species:S:1:pos:R:3 frame=T 53=T |=T Written=T by=T MDAnalysis=T XYZWriter=T (release=T 2.4.3)=T pbc="F F F"
H      -16.72993000      12.89093000       3.76615000
O      -16.72726000      13.25551000       4.65433000
H      -17.47040000      13.85095000       4.58166000
H      -18.77731000      11.19689000       6.69976000
O      -18.77786000      12.11849000       6.42550000
H      -18.21441000      12.09810000       5.62817000
