6
Properties=species:S:1:pos:R:3 frame=T 1=T |=T Written=T by=T MDAnalysis=T XYZWriter=T (release=T 2.4.3)=T pbc="F F F"
H        6.36196000       7.32139000       4.86027000
O        6.63161000       6.91994000       4.00626000
H        5.78169000       6.60623000       3.68507000
H        8.10997000       6.59877000       5.05916000
O        9.03119000       6.42710000       5.35357000
H        8.95993000       6.28228000       6.29053000
