6
Properties=species:S:1:pos:R:3 frame=T 44=T |=T Written=T by=T MDAnalysis=T XYZWriter=T (release=T 2.4.3)=T pbc="F F F"
H        4.32676000     -12.81596000     -16.36943000
O        4.35604000     -12.19706000     -15.60253000
H        4.54005000     -11.35916000     -16.04120000
H        2.83521000     -12.77062000     -14.81094000
O        2.32059000     -13.51338000     -14.45190000
H        1.68794000     -13.04414000     -13.90156000
