6
Properties=species:S:1:pos:R:3 frame=T 42=T |=T Written=T by=T MDAnalysis=T XYZWriter=T (release=T 2.4.3)=T pbc="F F F"
H       -1.47717000       3.85375000      10.69101000
O       -0.55906000       4.01063000      10.47958000
H       -0.06621000       3.34854000      10.98299000
H        1.01291000       2.54670000      12.69106000
O        1.28883000       2.40619000      11.79255000
H        0.86714000       1.57081000      11.57349000
