6
Properties=species:S:1:pos:R:3 frame=T 40=T |=T Written=T by=T MDAnalysis=T XYZWriter=T (release=T 2.4.3)=T pbc="F F F"
H        7.85639000       5.18864000      13.02436000
O        7.19331000       4.55496000      13.32337000
H        7.38407000       3.72211000      12.94489000
H        7.03616000       4.36450000      15.08044000
O        6.60810000       3.88789000      15.81342000
H        7.25169000       3.20569000      16.05089000
