6
Properties=species:S:1:pos:R:3 frame=T 7=T |=T Written=T by=T MDAnalysis=T XYZWriter=T (release=T 2.4.3)=T pbc="F F F"
H        6.32030000      13.29682000      11.23002000
O        6.69277000      13.23124000      10.35054000
H        5.91396000      13.18163000       9.79212000
H        3.61537000      12.95342000       8.82497000
O        4.40420000      12.44768000       8.93410000
H        4.58871000      12.20879000       8.02671000
