6
Properties=species:S:1:pos:R:3 frame=T 50=T |=T Written=T by=T MDAnalysis=T XYZWriter=T (release=T 2.4.3)=T pbc="F F F"
H       -0.63476000      12.19578000      -6.39514000
O        0.25529000      11.88575000      -6.64750000
H        0.74856000      12.69107000      -6.83644000
H       -0.84198000      10.14687000      -9.36189000
O       -0.57290000       9.94059000      -8.46190000
H       -0.54076000      10.86519000      -8.15379000
