6
Properties=species:S:1:pos:R:3 frame=T 3=T |=T Written=T by=T MDAnalysis=T XYZWriter=T (release=T 2.4.3)=T pbc="F F F"
H      -13.24614000      17.93223000       4.86173000
O      -12.53664000      17.26464000       4.99750000
H      -11.70306000      17.76107000       4.89848000
H      -15.54407000      18.71609000       3.59760000
O      -14.94040000      18.12016000       4.11823000
H      -14.53646000      17.57269000       3.42597000
