6
Properties=species:S:1:pos:R:3 frame=T 53=T |=T Written=T by=T MDAnalysis=T XYZWriter=T (release=T 2.4.3)=T pbc="F F F"
H       -5.31638000      -9.73403000      -3.52768000
O       -5.12073000     -10.47538000      -2.92546000
H       -5.93224000     -10.47032000      -2.39608000
H       -3.13809000     -12.37372000      -2.46793000
O       -2.68898000     -11.57215000      -2.72458000
H       -3.37532000     -10.93615000      -2.62995000
