6
Properties=species:S:1:pos:R:3 frame=T 35=T |=T Written=T by=T MDAnalysis=T XYZWriter=T (release=T 2.4.3)=T pbc="F F F"
H      -11.26601000      -1.04854000       4.54550000
O      -11.87288000      -1.69596000       4.90858000
H      -12.04875000      -1.40530000       5.81474000
H      -11.23641000      -4.80486000       5.46637000
O      -10.52731000      -4.21987000       5.70734000
H      -10.85116000      -3.38020000       5.33976000
