6
Properties=species:S:1:pos:R:3 frame=T 37=T |=T Written=T by=T MDAnalysis=T XYZWriter=T (release=T 2.4.3)=T pbc="F F F"
H       14.47255000      11.27957000       9.80530000
O       14.98364000      11.04241000       9.00464000
H       15.07128000      11.89485000       8.53654000
H       15.42410000      12.69016000       6.46540000
O       16.16066000      12.72306000       7.14825000
H       16.53036000      11.83811000       7.13440000
