6
Properties=species:S:1:pos:R:3 frame=T 2=T |=T Written=T by=T MDAnalysis=T XYZWriter=T (release=T 2.4.3)=T pbc="F F F"
H        5.98175000      -7.45753000     -15.96885000
O        5.30376000      -6.83994000     -15.71279000
H        5.72481000      -6.17165000     -15.16087000
H        4.99130000      -7.01958000     -17.52868000
O        4.97824000      -7.30632000     -18.45216000
H        4.25290000      -6.83435000     -18.88906000
