6
Properties=species:S:1:pos:R:3 frame=T 29=T |=T Written=T by=T MDAnalysis=T XYZWriter=T (release=T 2.4.3)=T pbc="F F F"
H       -5.47262000     -12.68668000      -1.69596000
O       -6.22971000     -12.19613000      -2.05803000
H       -6.94663000     -12.79391000      -1.78422000
H       -6.61722000     -10.72925000      -1.37153000
O       -7.18571000     -10.03097000      -0.96569000
H       -6.61215000      -9.25132000      -1.04784000
