6
Properties=species:S:1:pos:R:3 frame=T 23=T |=T Written=T by=T MDAnalysis=T XYZWriter=T (release=T 2.4.3)=T pbc="F F F"
H        9.94931000       5.30207000      -4.58343000
O        9.96154000       6.12695000      -5.10063000
H        9.54339000       5.82304000      -5.96050000
H        9.04207000       5.86157000      -8.29802000
O        8.64441000       6.08850000      -7.45290000
H        8.43818000       7.03282000      -7.58070000
