6
Properties=species:S:1:pos:R:3 frame=T 10=T |=T Written=T by=T MDAnalysis=T XYZWriter=T (release=T 2.4.3)=T pbc="F F F"
H        1.54337000      -3.96199000     -12.26897000
O        1.82231000      -3.33335000     -12.94909000
H        2.62735000      -3.01349000     -12.57976000
H        2.25916000      -5.22029000     -13.49898000
O        2.14980000      -6.00438000     -14.07742000
H        2.42244000      -6.74346000     -13.49385000
