6
Properties=species:S:1:pos:R:3 frame=T 23=T |=T Written=T by=T MDAnalysis=T XYZWriter=T (release=T 2.4.3)=T pbc="F F F"
H      -14.78356000       0.89296000     -14.77776000
O      -14.93439000       1.63293000     -14.17854000
H      -14.05978000       1.87229000     -13.83949000
H      -14.54653000      -1.10805000     -14.37255000
O      -14.91181000      -0.75194000     -15.18921000
H      -15.04869000      -1.53221000     -15.75704000
