6
Properties=species:S:1:pos:R:3 frame=T 15=T |=T Written=T by=T MDAnalysis=T XYZWriter=T (release=T 2.4.3)=T pbc="F F F"
H       10.09934000     -11.09414000     -10.23191000
O        9.72600000     -10.21865000     -10.08092000
H        8.91720000     -10.37331000      -9.57402000
H        6.63532000      -9.85217000      -9.28180000
O        7.00054000     -10.55344000      -8.75586000
H        7.62509000     -10.11294000      -8.16671000
