6
Properties=species:S:1:pos:R:3 frame=T 41=T |=T Written=T by=T MDAnalysis=T XYZWriter=T (release=T 2.4.3)=T pbc="F F F"
H       -7.23148000       7.08884000     -13.85492000
O       -7.26911000       8.05487000     -13.94107000
H       -6.60815000       8.34495000     -13.31616000
H       -5.59120000       8.78151000     -15.14639000
O       -4.96807000       8.47154000     -15.78827000
H       -5.41329000       8.72212000     -16.61006000
