6
Properties=species:S:1:pos:R:3 frame=T 3=T |=T Written=T by=T MDAnalysis=T XYZWriter=T (release=T 2.4.3)=T pbc="F F F"
H      -16.02817000     -15.48875000     -12.20386000
O      -15.80874000     -15.63729000     -13.14019000
H      -16.59641000     -15.23844000     -13.63147000
H      -16.17580000     -16.69825000     -10.15204000
O      -16.83200000     -16.06683000     -10.52596000
H      -17.60648000     -16.62266000     -10.70285000
