6
Properties=species:S:1:pos:R:3 frame=T 16=T |=T Written=T by=T MDAnalysis=T XYZWriter=T (release=T 2.4.3)=T pbc="F F F"
H        7.79404000       4.51889000       4.61147000
O        7.43411000       5.30934000       5.04668000
H        8.04562000       6.01499000       4.84699000
H        7.69660000       5.29557000       6.90114000
O        7.92213000       5.28972000       7.83716000
H        8.87920000       5.30713000       7.87086000
