6
Properties=species:S:1:pos:R:3 frame=T 38=T |=T Written=T by=T MDAnalysis=T XYZWriter=T (release=T 2.4.3)=T pbc="F F F"
H      -19.10571000      10.89298000      -9.09289000
O      -18.74876000      11.05178000      -9.97601000
H      -18.41710000      11.96212000      -9.89979000
H      -17.51334000      14.12126000     -10.01679000
O      -17.16166000      13.23451000      -9.97953000
H      -16.30165000      13.30634000      -9.53193000
