6
Properties=species:S:1:pos:R:3 frame=T 38=T |=T Written=T by=T MDAnalysis=T XYZWriter=T (release=T 2.4.3)=T pbc="F F F"
H       -0.66547000     -15.19930000      -9.81895000
O       -1.07724000     -15.40600000     -10.66460000
H       -0.54504000     -16.18184000     -10.88758000
H       -2.68496000     -14.87313000     -11.35030000
O       -3.47155000     -14.31440000     -11.38176000
H       -3.25456000     -13.55464000     -10.79543000
