6
Properties=species:S:1:pos:R:3 frame=T 1=T |=T Written=T by=T MDAnalysis=T XYZWriter=T (release=T 2.4.3)=T pbc="F F F"
H        5.60521000      -7.08749000      -2.43201000
O        4.72852000      -7.40093000      -2.23315000
H        4.77344000      -7.62939000      -1.28432000
H        3.94259000      -5.88294000      -3.28513000
O        4.06908000      -5.07659000      -3.77856000
H        4.99666000      -4.98599000      -3.97969000
