6
Properties=species:S:1:pos:R:3 frame=T 45=T |=T Written=T by=T MDAnalysis=T XYZWriter=T (release=T 2.4.3)=T pbc="F F F"
H        3.32323000      16.17797000     -13.76358000
O        3.99382000      15.46857000     -13.91013000
H        3.47520000      14.84846000     -14.46610000
H        1.84571000      18.11973000     -13.62246000
O        2.17988000      17.35667000     -14.12596000
H        1.46046000      17.15609000     -14.76322000
