6
Properties=species:S:1:pos:R:3 frame=T 9=T |=T Written=T by=T MDAnalysis=T XYZWriter=T (release=T 2.4.3)=T pbc="F F F"
H      -11.49454000      10.22895000       3.11690000
O      -12.30861000       9.75134000       2.92125000
H      -11.94795000       8.86897000       2.93024000
H       -9.69955000       7.19861000       2.27156000
O      -10.36796000       7.37393000       2.93108000
H      -11.22861000       7.04265000       2.62059000
