6
Properties=species:S:1:pos:R:3 frame=T 19=T |=T Written=T by=T MDAnalysis=T XYZWriter=T (release=T 2.4.3)=T pbc="F F F"
H       -8.82980000      -3.28306000      -1.21382000
O       -8.93126000      -2.33988000      -1.09402000
H       -9.14705000      -2.02107000      -1.99828000
H       -8.00049000      -5.23734000      -0.47734000
O       -8.95630000      -5.07470000      -0.54092000
H       -9.12696000      -5.22956000      -1.47501000
