6
Properties=species:S:1:pos:R:3 frame=T 48=T |=T Written=T by=T MDAnalysis=T XYZWriter=T (release=T 2.4.3)=T pbc="F F F"
H       -1.19622000      11.32959000       0.97224000
O       -1.06400000      10.47534000       0.55822000
H       -0.09348000      10.33217000       0.69602000
H        1.08134000       8.74625000       1.51932000
O        1.53609000       9.57468000       1.24477000
H        1.66731000      10.03069000       2.09213000
