6
Properties=species:S:1:pos:R:3 frame=T 22=T |=T Written=T by=T MDAnalysis=T XYZWriter=T (release=T 2.4.3)=T pbc="F F F"
H        0.85559000     -14.50493000      -4.03671000
O        0.79880000     -15.11677000      -3.29910000
H        1.58474000     -15.64618000      -3.43766000
H        0.60997000     -17.35932000      -4.92192000
O       -0.29028000     -17.15087000      -4.59567000
H       -0.09185000     -16.30958000      -4.15827000
