6
Properties=species:S:1:pos:R:3 frame=T 19=T |=T Written=T by=T MDAnalysis=T XYZWriter=T (release=T 2.4.3)=T pbc="F F F"
H      -14.10659000     -10.49670000      -7.45390000
O      -13.96674000     -10.79927000      -6.56136000
H      -14.85543000     -10.54568000      -6.22846000
H      -15.79797000      -9.76897000      -8.42838000
O      -15.01466000      -9.21016000      -8.55085000
H      -15.22046000      -8.48723000      -7.91678000
