6
Properties=species:S:1:pos:R:3 frame=T 44=T |=T Written=T by=T MDAnalysis=T XYZWriter=T (release=T 2.4.3)=T pbc="F F F"
H       15.51907000       7.52792000      -7.85876000
O       14.67916000       7.50212000      -7.44431000
H       14.80327000       7.05340000      -6.60659000
H       12.42248000       7.52059000      -4.03772000
O       12.74267000       7.90143000      -4.85961000
H       13.60635000       7.45240000      -5.00767000
