6
Properties=species:S:1:pos:R:3 frame=T 50=T |=T Written=T by=T MDAnalysis=T XYZWriter=T (release=T 2.4.3)=T pbc="F F F"
H       14.42914000     -13.01402000      -1.93402000
O       14.31654000     -12.15742000      -1.51525000
H       14.42136000     -11.55727000      -2.26589000
H       14.12304000     -11.49094000       0.04285000
O       14.32728000     -10.74008000       0.65981000
H       15.16335000     -10.99234000       1.07596000
