6
Properties=species:S:1:pos:R:3 frame=T 39=T |=T Written=T by=T MDAnalysis=T XYZWriter=T (release=T 2.4.3)=T pbc="F F F"
H       -2.83815000     -16.53238000      18.05519000
O       -2.42439000     -15.68412000      17.93662000
H       -1.93746000     -15.52886000      18.75070000
H       -1.71512000     -14.05329000      16.98554000
O       -1.20809000     -13.23740000      17.01236000
H       -0.50013000     -13.30394000      17.68696000
