6
Properties=species:S:1:pos:R:3 frame=T 41=T |=T Written=T by=T MDAnalysis=T XYZWriter=T (release=T 2.4.3)=T pbc="F F F"
H       -5.66576000      16.79298000      -5.80892000
O       -5.56333000      15.88579000      -5.51858000
H       -5.67579000      16.02349000      -4.57719000
H       -5.74199000      15.36453000      -2.70082000
O       -5.98174000      16.27456000      -2.48252000
H       -6.95679000      16.25780000      -2.45733000
