6
Properties=species:S:1:pos:R:3 frame=T 6=T |=T Written=T by=T MDAnalysis=T XYZWriter=T (release=T 2.4.3)=T pbc="F F F"
H       -5.83386000     -15.17586000      17.39725000
O       -6.60057000     -15.69109000      17.64510000
H       -6.25280000     -16.27621000      18.32417000
H       -4.73123000     -13.12214000      16.81774000
O       -4.66631000     -14.01498000      17.22563000
H       -4.08895000     -13.96665000      18.00544000
