6
Properties=species:S:1:pos:R:3 frame=T 29=T |=T Written=T by=T MDAnalysis=T XYZWriter=T (release=T 2.4.3)=T pbc="F F F"
H      -11.52198000      18.69580000      13.03562000
O      -12.25427000      18.27966000      13.51298000
H      -11.84191000      17.50789000      13.94200000
H      -15.29430000      17.75462000      13.69468000
O      -14.87385000      18.60759000      13.74271000
H      -13.95373000      18.39230000      13.84753000
