6
Properties=species:S:1:pos:R:3 frame=T 6=T |=T Written=T by=T MDAnalysis=T XYZWriter=T (release=T 2.4.3)=T pbc="F F F"
H       -7.57623000      10.19165000      18.57145000
O       -7.42472000      11.06812000      18.22524000
H       -7.96309000      11.13800000      17.44522000
H       -9.57078000      10.02225000      16.36797000
O       -9.18008000      10.86267000      16.12696000
H       -9.96053000      11.41336000      16.06520000
