6
Properties=species:S:1:pos:R:3 frame=T 47=T |=T Written=T by=T MDAnalysis=T XYZWriter=T (release=T 2.4.3)=T pbc="F F F"
H      -14.08928000     -13.19604000       6.10860000
O      -13.64236000     -13.24962000       6.96645000
H      -14.40281000     -12.98575000       7.49647000
H      -12.49850000     -14.23724000       7.94695000
O      -11.67956000     -14.70767000       8.24618000
H      -11.59085000     -15.38648000       7.55149000
