6
Properties=species:S:1:pos:R:3 frame=T 3=T |=T Written=T by=T MDAnalysis=T XYZWriter=T (release=T 2.4.3)=T pbc="F F F"
H      -18.53811000      17.68867000     -10.54757000
O      -18.69149000      17.51369000     -11.50513000
H      -18.14843000      16.70412000     -11.60754000
H      -19.24935000      17.56541000      -8.82092000
O      -18.84506000      18.41908000      -8.95238000
H      -18.34397000      18.53855000      -8.12621000
