6
Properties=species:S:1:pos:R:3 frame=T 30=T |=T Written=T by=T MDAnalysis=T XYZWriter=T (release=T 2.4.3)=T pbc="F F F"
H       -4.93368000       6.66237000      -7.27528000
O       -4.18498000       7.04077000      -7.75496000
H       -3.58766000       7.32642000      -7.05161000
H       -1.56599000       8.35882000      -6.98908000
O       -2.02783000       8.15467000      -6.17574000
H       -2.24362000       9.05130000      -5.89480000
