6
Properties=species:S:1:pos:R:3 frame=T 5=T |=T Written=T by=T MDAnalysis=T XYZWriter=T (release=T 2.4.3)=T pbc="F F F"
H      -16.26021000       4.30547000      13.95739000
O      -16.74984000       3.71190000      13.38048000
H      -16.09111000       3.07965000      13.11376000
H      -14.89422000       6.33525000      14.18122000
O      -15.79220000       6.17132000      14.43921000
H      -15.72110000       6.10545000      15.39225000
