6
Properties=species:S:1:pos:R:3 frame=T 23=T |=T Written=T by=T MDAnalysis=T XYZWriter=T (release=T 2.4.3)=T pbc="F F F"
H       14.29712000      -3.92103000       2.89566000
O       14.16946000      -4.80419000       3.25230000
H       13.44253000      -4.71814000       3.89378000
H       14.94799000      -5.83374000       6.11902000
O       15.52926000      -5.93581000       5.35284000
H       14.94638000      -5.72563000       4.59879000
