6
Properties=species:S:1:pos:R:3 frame=T 11=T |=T Written=T by=T MDAnalysis=T XYZWriter=T (release=T 2.4.3)=T pbc="F F F"
H       10.69323000       4.90895000      -0.62232000
O       10.36219000       4.80829000       0.29272000
H       11.07667000       4.38125000       0.75575000
H        7.48161000       3.46151000       1.06110000
O        7.98184000       3.41287000       0.25004000
H        8.83241000       3.78493000       0.40852000
