6
Properties=species:S:1:pos:R:3 frame=T 3=T |=T Written=T by=T MDAnalysis=T XYZWriter=T (release=T 2.4.3)=T pbc="F F F"
H      -13.90363000      -4.02767000      17.35913000
O      -14.80322000      -3.78146000      17.65423000
H      -15.37234000      -4.43633000      17.29632000
H      -14.50291000      -0.94583000      16.96928000
O      -14.55970000      -1.42544000      16.13894000
H      -14.83599000      -2.26998000      16.49960000
