6
Properties=species:S:1:pos:R:3 frame=T 42=T |=T Written=T by=T MDAnalysis=T XYZWriter=T (release=T 2.4.3)=T pbc="F F F"
H      -14.68476000       1.73064000       9.30567000
O      -14.25601000       0.87213000       9.15200000
H      -14.72770000       0.33300000       9.78852000
H      -14.26395000      -2.07302000       7.67301000
O      -14.69202000      -1.30411000       7.32972000
H      -14.57023000      -0.63596000       8.00168000
