6
Properties=species:S:1:pos:R:3 frame=T 3=T |=T Written=T by=T MDAnalysis=T XYZWriter=T (release=T 2.4.3)=T pbc="F F F"
H        5.29273000       1.82859000       0.08050000
O        4.52547000       1.33521000      -0.22169000
H        3.74968000       1.87909000      -0.25708000
H        6.90096000       0.10694000      -1.35598000
O        6.18204000      -0.42762000      -1.65559000
H        5.41275000       0.08106000      -1.43833000
