6
Properties=species:S:1:pos:R:3 frame=T 28=T |=T Written=T by=T MDAnalysis=T XYZWriter=T (release=T 2.4.3)=T pbc="F F F"
H       -2.10432000       5.03845000     -10.25439000
O       -1.66345000       5.52222000     -10.94075000
H       -0.82425000       5.76857000     -10.54253000
H       -1.91657000       6.16180000     -13.94177000
O       -1.07597000       6.28215000     -13.49597000
H       -1.23749000       5.90485000     -12.62503000
