6
Properties=species:S:1:pos:R:3 frame=T 26=T |=T Written=T by=T MDAnalysis=T XYZWriter=T (release=T 2.4.3)=T pbc="F F F"
H      -17.36622000     -16.82837000      -1.28236000
O      -17.94874000     -17.48398000      -1.68063000
H      -17.78567000     -17.40515000      -2.61622000
H      -17.22335000     -16.06764000      -4.47796000
O      -17.70478000     -16.90602000      -4.36560000
H      -18.08736000     -17.06456000      -5.23165000
