6
Properties=species:S:1:pos:R:3 frame=T 14=T |=T Written=T by=T MDAnalysis=T XYZWriter=T (release=T 2.4.3)=T pbc="F F F"
H       15.24280000     -10.01315000      17.31510000
O       15.19815000      -9.95773000      18.29733000
H       14.85148000      -9.06301000      18.43704000
H       13.20360000      -7.83027000      18.05856000
O       13.88801000      -7.19698000      18.27485000
H       13.75226000      -6.95845000      19.21263000
