6
Properties=species:S:1:pos:R:3 frame=T 48=T |=T Written=T by=T MDAnalysis=T XYZWriter=T (release=T 2.4.3)=T pbc="F F F"
H        4.61538000      -1.38063000      10.02446000
O        4.07404000      -1.89521000      10.64354000
H        4.03762000      -2.76814000      10.26032000
H        3.38431000      -4.75411000      10.27765000
O        4.18782000      -4.59876000       9.77880000
H        3.79003000      -4.44793000       8.91864000
