6
Properties=species:S:1:pos:R:3 frame=T 4=T |=T Written=T by=T MDAnalysis=T XYZWriter=T (release=T 2.4.3)=T pbc="F F F"
H       14.36602000      13.07654000      17.07700000
O       14.20185000      12.25404000      16.61712000
H       13.32713000      12.38547000      16.20917000
H       12.01993000      13.21661000      15.08812000
O       11.63439000      12.52761000      15.62912000
H       10.75455000      12.39946000      15.21195000
