6
Properties=species:S:1:pos:R:3 frame=T 18=T |=T Written=T by=T MDAnalysis=T XYZWriter=T (release=T 2.4.3)=T pbc="F F F"
H      -12.75616000      -7.32170000       0.69370000
O      -12.12790000      -6.67511000       1.07923000
H      -12.43887000      -6.72631000       1.98628000
H      -13.47154000      -8.17883000       3.96105000
O      -13.20329000      -7.37115000       3.53650000
H      -13.48113000      -6.70574000       4.17007000
