6
Properties=species:S:1:pos:R:3 frame=T 38=T |=T Written=T by=T MDAnalysis=T XYZWriter=T (release=T 2.4.3)=T pbc="F F F"
H      -14.34342000      18.38140000     -16.82207000
O      -15.21516000      18.73606000     -16.60737000
H      -15.02406000      19.39556000     -15.92168000
H      -13.08112000      16.73489000     -16.23956000
O      -13.02025000      17.37220000     -16.98320000
H      -12.81824000      16.91562000     -17.80421000
