6
Properties=species:S:1:pos:R:3 frame=T 50=T |=T Written=T by=T MDAnalysis=T XYZWriter=T (release=T 2.4.3)=T pbc="F F F"
H      -17.12637000       3.65558000      -9.76280000
O      -18.02756000       3.95567000      -9.71014000
H      -17.99302000       4.80829000     -10.22932000
H      -18.65907000       5.56686000     -11.96303000
O      -18.46204000       6.26933000     -11.34295000
H      -17.60241000       6.63498000     -11.60613000
