6
Properties=species:S:1:pos:R:3 frame=T 3=T |=T Written=T by=T MDAnalysis=T XYZWriter=T (release=T 2.4.3)=T pbc="F F F"
H       11.66992000       9.59780000      -6.78322000
O       12.42032000       9.88994000      -6.26056000
H       12.83945000       9.01565000      -6.06634000
H       13.48146000       7.31529000      -5.47784000
O       13.94219000       7.87709000      -4.87031000
H       14.84703000       7.80132000      -5.15882000
