6
Properties=species:S:1:pos:R:3 frame=T 1=T |=T Written=T by=T MDAnalysis=T XYZWriter=T (release=T 2.4.3)=T pbc="F F F"
H        6.38624000      -3.38209000     -10.59304000
O        6.75147000      -2.94596000      -9.81723000
H        5.99491000      -2.90739000      -9.24367000
H        7.21014000       0.03732000      -8.41012000
O        7.37946000      -0.34687000      -9.26445000
H        7.20659000      -1.28092000      -9.10170000
