6
Properties=species:S:1:pos:R:3 frame=T 27=T |=T Written=T by=T MDAnalysis=T XYZWriter=T (release=T 2.4.3)=T pbc="F F F"
H        9.71419000      -3.17945000     -18.43785000
O        9.06824000      -2.60975000     -17.98642000
H        9.56861000      -2.25090000     -17.23783000
H       11.31542000      -1.04004000     -15.97698000
O       10.44638000      -1.15313000     -16.35510000
H        9.95247000      -0.43343000     -15.98403000
