6
Properties=species:S:1:pos:R:3 frame=T 22=T |=T Written=T by=T MDAnalysis=T XYZWriter=T (release=T 2.4.3)=T pbc="F F F"
H        9.55379000     -10.20394000      17.11209000
O        9.14340000     -10.93742000      17.55965000
H        9.54363000     -10.86048000      18.41586000
H        7.34813000     -10.54093000      18.41849000
O        6.49052000     -10.46949000      18.82886000
H        6.17555000     -11.38186000      18.88129000
