6
Properties=species:S:1:pos:R:3 frame=T 33=T |=T Written=T by=T MDAnalysis=T XYZWriter=T (release=T 2.4.3)=T pbc="F F F"
H       16.35919000      10.60459000      -9.45239000
O       15.61886000      11.09938000      -9.78213000
H       14.83241000      10.52483000      -9.70122000
H       17.80352000      11.93678000      -8.76056000
O       18.11479000      11.04567000      -8.92346000
H       18.20893000      10.63639000      -8.04688000
