6
Properties=species:S:1:pos:R:3 frame=T 7=T |=T Written=T by=T MDAnalysis=T XYZWriter=T (release=T 2.4.3)=T pbc="F F F"
H      -18.03662000       8.28802000       2.25551000
O      -17.17440000       7.88345000       2.04207000
H      -17.40095000       7.38551000       1.22414000
H      -16.54806000       7.44926000       3.60349000
O      -15.79676000       7.26556000       4.16400000
H      -15.92827000       7.81820000       4.96604000
