6
Properties=species:S:1:pos:R:3 frame=T 10=T |=T Written=T by=T MDAnalysis=T XYZWriter=T (release=T 2.4.3)=T pbc="F F F"
H        1.27310000     -11.74608000      -8.89631000
O        0.58706000     -11.61168000      -8.20494000
H        0.99095000     -11.02085000      -7.59849000
H        1.14301000      -8.79676000      -6.69985000
O        1.67724000      -9.59073000      -6.87653000
H        2.41359000      -9.28745000      -7.39030000
