6
Properties=species:S:1:pos:R:3 frame=T 19=T |=T Written=T by=T MDAnalysis=T XYZWriter=T (release=T 2.4.3)=T pbc="F F F"
H       18.22234000     -17.53545000       6.80998000
O       17.64791000     -18.18743000       7.25927000
H       16.78437000     -17.88588000       6.95263000
H       18.27132000     -17.63355000      10.41265000
O       17.69290000     -18.31668000      10.09368000
H       17.83603000     -18.23030000       9.13188000
