6
Properties=species:S:1:pos:R:3 frame=T 45=T |=T Written=T by=T MDAnalysis=T XYZWriter=T (release=T 2.4.3)=T pbc="F F F"
H       15.53832000      18.54583000       0.59341000
O       16.06855000      19.25057000       0.19331000
H       16.96307000      19.06216000       0.56890000
H       18.09316000      18.66565000       2.33463000
O       18.44378000      19.18850000       1.60820000
H       19.15122000      18.65263000       1.21632000
