6
Properties=species:S:1:pos:R:3 frame=T 16=T |=T Written=T by=T MDAnalysis=T XYZWriter=T (release=T 2.4.3)=T pbc="F F F"
H       -7.39722000       7.20915000      16.62070000
O       -6.80599000       7.15780000      15.87841000
H       -7.30517000       7.62454000      15.17356000
H       -6.92164000       8.49883000      19.16531000
O       -6.98269000       8.67869000      18.22469000
H       -6.32095000       8.11017000      17.82984000
