6
Properties=species:S:1:pos:R:3 frame=T 26=T |=T Written=T by=T MDAnalysis=T XYZWriter=T (release=T 2.4.3)=T pbc="F F F"
H       -5.17037000       3.58775000      -0.36156000
O       -4.92591000       2.69191000      -0.08048000
H       -5.76163000       2.23636000       0.24064000
H       -5.11706000       1.72646000      -1.65693000
O       -4.84584000       1.63429000      -2.58665000
H       -5.62304000       1.32759000      -3.05373000
