6
Properties=species:S:1:pos:R:3 frame=T 7=T |=T Written=T by=T MDAnalysis=T XYZWriter=T (release=T 2.4.3)=T pbc="F F F"
H       12.57354000     -12.59928000       1.77158000
O       12.42123000     -12.90866000       0.87796000
H       12.12638000     -13.80994000       1.01845000
H       10.11150000     -11.48093000       1.81280000
O       10.03401000     -12.13706000       1.10539000
H       10.92362000     -12.53303000       1.06789000
