6
Properties=species:S:1:pos:R:3 frame=T 10=T |=T Written=T by=T MDAnalysis=T XYZWriter=T (release=T 2.4.3)=T pbc="F F F"
H        1.00744000      19.36885000     -15.78742000
O        1.13665000      18.41240000     -15.68859000
H        1.87011000      18.34284000     -15.06577000
H        3.00769000      16.37471000     -16.57412000
O        3.75883000      16.22185000     -16.00248000
H        3.41446000      15.78658000     -15.20968000
