6
Properties=species:S:1:pos:R:3 frame=T 32=T |=T Written=T by=T MDAnalysis=T XYZWriter=T (release=T 2.4.3)=T pbc="F F F"
H       10.89146000      19.12385000     -11.49339000
O       11.09261000      18.18480000     -11.73911000
H       11.33933000      18.25583000     -12.66122000
H       13.81779000      19.03307000     -11.84400000
O       13.68945000      18.06122000     -11.84772000
H       12.73225000      17.98713000     -11.72626000
