6
Properties=species:S:1:pos:R:3 frame=T 49=T |=T Written=T by=T MDAnalysis=T XYZWriter=T (release=T 2.4.3)=T pbc="F F F"
H      -14.06962000       1.24737000      10.42023000
O      -14.92401000       0.86999000      10.56474000
H      -15.47902000       1.50448000      10.11259000
H      -17.36217000       0.47853000      10.01018000
O      -17.91311000      -0.29956000       9.91778000
H      -18.64948000      -0.01449000       9.34862000
