6
Properties=species:S:1:pos:R:3 frame=T 8=T |=T Written=T by=T MDAnalysis=T XYZWriter=T (release=T 2.4.3)=T pbc="F F F"
H      -10.79587000      13.35888000      -1.32473000
O      -10.85227000      12.47976000      -0.93901000
H      -11.52063000      12.55181000      -0.21444000
H      -10.79376000      14.16076000       0.44364000
O      -10.90625000      15.05814000       0.08360000
H      -10.01235000      15.40517000      -0.03929000
