6
Properties=species:S:1:pos:R:3 frame=T 0=T |=T Written=T by=T MDAnalysis=T XYZWriter=T (release=T 2.4.3)=T pbc="F F F"
H       -9.25961000     -17.64091000      13.49298000
O       -9.37846000     -17.94128000      12.57171000
H       -9.18707000     -17.16844000      12.01174000
H      -10.06426000     -17.28852000      15.30174000
O       -9.46331000     -16.67332000      14.84311000
H       -9.61710000     -15.85246000      15.32279000
