6
Properties=species:S:1:pos:R:3 frame=T 5=T |=T Written=T by=T MDAnalysis=T XYZWriter=T (release=T 2.4.3)=T pbc="F F F"
H       -3.54682000       4.19810000      17.66880000
O       -4.30793000       4.74466000      17.51898000
H       -5.01017000       4.12026000      17.37619000
H       -5.61803000       3.26280000      15.53989000
O       -6.21724000       3.91503000      15.96881000
H       -6.99314000       3.98717000      15.38695000
