6
Properties=species:S:1:pos:R:3 frame=T 12=T |=T Written=T by=T MDAnalysis=T XYZWriter=T (release=T 2.4.3)=T pbc="F F F"
H       -7.72019000      -1.58657000      16.61608000
O       -7.25098000      -1.78134000      15.84889000
H       -7.61530000      -2.60362000      15.56629000
H       -5.73289000      -1.85631000      17.16210000
O       -4.80901000      -2.00939000      17.40985000
H       -4.79510000      -2.13597000      18.35000000
