6
Properties=species:S:1:pos:R:3 frame=T 12=T |=T Written=T by=T MDAnalysis=T XYZWriter=T (release=T 2.4.3)=T pbc="F F F"
H       12.95339000      -3.26768000      -7.84426000
O       13.37652000      -3.83540000      -7.20868000
H       12.99035000      -3.54279000      -6.36201000
H       13.90111000      -1.68998000      -8.38840000
O       13.65468000      -1.69627000      -9.30273000
H       12.98592000      -1.00376000      -9.35984000
