6
Properties=species:S:1:pos:R:3 frame=T 48=T |=T Written=T by=T MDAnalysis=T XYZWriter=T (release=T 2.4.3)=T pbc="F F F"
H        3.80924000      -1.16466000      14.77842000
O        4.67545000      -1.14878000      15.19802000
H        4.39968000      -1.08692000      16.13659000
H        5.18755000      -4.08728000      16.28599000
O        5.89929000      -3.63029000      15.80912000
H        5.50677000      -2.80318000      15.50508000
