6
Properties=species:S:1:pos:R:3 frame=T 43=T |=T Written=T by=T MDAnalysis=T XYZWriter=T (release=T 2.4.3)=T pbc="F F F"
H        8.69710000     -15.47482000      -7.80058000
O        8.99117000     -15.28235000      -8.70758000
H        9.70307000     -15.94136000      -8.79533000
H        6.75234000     -15.27659000      -6.77141000
O        7.49107000     -15.16733000      -6.15283000
H        7.45279000     -14.22433000      -6.04003000
