6
Properties=species:S:1:pos:R:3 frame=T 4=T |=T Written=T by=T MDAnalysis=T XYZWriter=T (release=T 2.4.3)=T pbc="F F F"
H        7.11183000      -9.11150000      16.64894000
O        7.37175000      -9.92090000      16.17027000
H        8.34291000      -9.76120000      16.16326000
H       10.29713000      -8.57911000      16.17658000
O       10.09953000      -9.42996000      15.75604000
H       10.98645000      -9.81505000      15.63330000
