6
Properties=species:S:1:pos:R:3 frame=T 48=T |=T Written=T by=T MDAnalysis=T XYZWriter=T (release=T 2.4.3)=T pbc="F F F"
H        3.23219000       1.85874000     -16.68482000
O        2.77712000       2.03385000     -17.52921000
H        2.40346000       2.90748000     -17.37724000
H        4.49102000       1.72827000     -18.40591000
O        5.20952000       2.31405000     -18.65918000
H        5.90836000       1.78612000     -19.11419000
