6
Properties=species:S:1:pos:R:3 frame=T 45=T |=T Written=T by=T MDAnalysis=T XYZWriter=T (release=T 2.4.3)=T pbc="F F F"
H       -7.00137000     -12.83391000      13.93968000
O       -6.97368000     -13.46949000      13.20281000
H       -7.01080000     -12.89377000      12.43428000
H       -7.11860000     -11.84570000      16.25278000
O       -6.56396000     -12.37957000      15.69804000
H       -6.10225000     -11.70031000      15.24819000
