6
Properties=species:S:1:pos:R:3 frame=T 43=T |=T Written=T by=T MDAnalysis=T XYZWriter=T (release=T 2.4.3)=T pbc="F F F"
H       -9.25088000      -3.27954000      -0.71503000
O       -8.43471000      -2.90686000      -0.37971000
H       -7.75562000      -3.42396000      -0.86266000
H       -6.46509000      -5.00895000      -1.13344000
O       -6.52156000      -4.44676000      -1.91964000
H       -6.96908000      -5.04201000      -2.56083000
