6
Properties=species:S:1:pos:R:3 frame=T 40=T |=T Written=T by=T MDAnalysis=T XYZWriter=T (release=T 2.4.3)=T pbc="F F F"
H        5.00116000      15.55914000     -14.84286000
O        5.65786000      15.19109000     -15.43519000
H        5.71043000      15.91053000     -16.10269000
H        7.07126000      14.94364000     -14.23078000
O        7.86662000      15.11187000     -13.70178000
H        7.98958000      14.29838000     -13.21315000
