6
Properties=species:S:1:pos:R:3 frame=T 38=T |=T Written=T by=T MDAnalysis=T XYZWriter=T (release=T 2.4.3)=T pbc="F F F"
H       14.99652000      -2.62716000      11.80168000
O       14.08810000      -2.42621000      11.53077000
H       13.54503000      -2.72866000      12.31011000
H       14.05646000      -0.51825000      11.42546000
O       13.37271000       0.14319000      11.25221000
H       13.78082000       0.97012000      11.56216000
