6
Properties=species:S:1:pos:R:3 frame=T 40=T |=T Written=T by=T MDAnalysis=T XYZWriter=T (release=T 2.4.3)=T pbc="F F F"
H      -17.48776000      11.33573000       9.38476000
O      -18.44690000      11.44417000       9.21917000
H      -18.55791000      12.39456000       9.23342000
H      -18.37411000      14.68708000       8.32621000
O      -18.33645000      14.04872000       9.04506000
H      -18.06149000      14.59806000       9.82341000
