6
Properties=species:S:1:pos:R:3 frame=T 36=T |=T Written=T by=T MDAnalysis=T XYZWriter=T (release=T 2.4.3)=T pbc="F F F"
H       11.33689000      12.54697000      -0.12836000
O       12.03367000      12.39115000      -0.79274000
H       12.52092000      11.64286000      -0.40939000
H       10.62188000      11.23857000       2.40048000
O       10.74919000      11.73965000       1.60047000
H       10.57860000      12.64162000       1.87974000
