6
Properties=species:S:1:pos:R:3 frame=T 28=T |=T Written=T by=T MDAnalysis=T XYZWriter=T (release=T 2.4.3)=T pbc="F F F"
H      -11.34076000      14.74735000      14.02889000
O      -11.42475000      13.94807000      13.50368000
H      -10.50244000      13.63754000      13.44981000
H      -11.67285000      15.81713000      15.77990000
O      -11.08807000      16.40449000      15.26901000
H      -10.24556000      16.43695000      15.74266000
