6
Properties=species:S:1:pos:R:3 frame=T 0=T |=T Written=T by=T MDAnalysis=T XYZWriter=T (release=T 2.4.3)=T pbc="F F F"
H      -11.50722000      -4.03584000     -14.58797000
O      -11.99023000      -3.58841000     -15.29419000
H      -11.76173000      -2.63953000     -15.28348000
H      -15.01331000      -2.20555000     -15.54470000
O      -14.44210000      -2.58487000     -14.84961000
H      -13.60132000      -2.81512000     -15.29309000
