6
Properties=species:S:1:pos:R:3 frame=T 9=T |=T Written=T by=T MDAnalysis=T XYZWriter=T (release=T 2.4.3)=T pbc="F F F"
H       -3.73017000      -8.92646000      19.27098000
O       -3.82889000      -9.69650000      18.69740000
H       -3.07755000     -10.26173000      18.94846000
H       -5.58741000     -10.41888000      18.86930000
O       -6.38862000     -10.87071000      18.64031000
H       -6.22826000     -11.71993000      19.06347000
