6
Properties=species:S:1:pos:R:3 frame=T 36=T |=T Written=T by=T MDAnalysis=T XYZWriter=T (release=T 2.4.3)=T pbc="F F F"
H      -12.21082000     -14.55666000     -16.87186000
O      -12.73202000     -13.81486000     -16.53742000
H      -12.17058000     -13.40980000     -15.85647000
H       -9.91885000     -13.30192000     -14.95106000
O      -10.84659000     -13.00085000     -14.85684000
H      -10.97900000     -12.92579000     -13.91364000
