6
Properties=species:S:1:pos:R:3 frame=T 3=T |=T Written=T by=T MDAnalysis=T XYZWriter=T (release=T 2.4.3)=T pbc="F F F"
H      -16.91408000     -13.29994000      -5.20161000
O      -16.29515000     -13.05126000      -5.92588000
H      -16.85370000     -12.50384000      -6.51186000
H      -14.91218000     -11.52902000      -3.21868000
O      -14.76033000     -11.29195000      -4.14840000
H      -15.09204000     -12.07080000      -4.61312000
