6
Properties=species:S:1:pos:R:3 frame=T 38=T |=T Written=T by=T MDAnalysis=T XYZWriter=T (release=T 2.4.3)=T pbc="F F F"
H       -8.89827000      -1.23120000      13.03878000
O       -9.05522000      -2.03124000      13.57108000
H       -9.25241000      -1.63147000      14.44742000
H      -10.36076000      -4.71081000      13.44170000
O       -9.44401000      -4.62014000      13.15303000
H       -9.38287000      -3.67717000      13.04653000
