6
Properties=species:S:1:pos:R:3 frame=T 28=T |=T Written=T by=T MDAnalysis=T XYZWriter=T (release=T 2.4.3)=T pbc="F F F"
H      -13.47732000      -2.22317000      -9.64114000
O      -13.50034000      -2.99882000     -10.15758000
H      -12.97692000      -3.64087000      -9.67875000
H      -16.09573000      -4.14292000     -11.54487000
O      -15.91654000      -3.21285000     -11.45147000
H      -15.06123000      -3.18852000     -11.00779000
