6
Properties=species:S:1:pos:R:3 frame=T 14=T |=T Written=T by=T MDAnalysis=T XYZWriter=T (release=T 2.4.3)=T pbc="F F F"
H       16.54965000     -11.39807000      15.81780000
O       15.77240000     -10.81487000      15.69108000
H       16.19481000      -9.91118000      15.69608000
H       15.24280000     -10.01315000      17.31510000
O       15.19815000      -9.95773000      18.29733000
H       14.85148000      -9.06301000      18.43704000
