6
Properties=species:S:1:pos:R:3 frame=T 44=T |=T Written=T by=T MDAnalysis=T XYZWriter=T (release=T 2.4.3)=T pbc="F F F"
H       -8.64525000      -5.35166000       5.82308000
O       -7.82390000      -4.81887000       5.83542000
H       -7.16593000      -5.44117000       6.19910000
H       -8.52985000      -1.91157000       5.70952000
O       -7.83379000      -2.21446000       5.12267000
H       -7.76608000      -3.11462000       5.42272000
