6
Properties=species:S:1:pos:R:3 frame=T 15=T |=T Written=T by=T MDAnalysis=T XYZWriter=T (release=T 2.4.3)=T pbc="F F F"
H      -15.52943000       9.29653000      -5.41023000
O      -15.04653000       9.04675000      -6.23317000
H      -15.39179000       9.68018000      -6.86036000
H      -14.90917000       9.80128000      -9.24422000
O      -15.60792000       9.94167000      -8.57824000
H      -15.70270000      10.89803000      -8.55084000
