6
Properties=species:S:1:pos:R:3 frame=T 17=T |=T Written=T by=T MDAnalysis=T XYZWriter=T (release=T 2.4.3)=T pbc="F F F"
H      -16.92838000       1.76161000      -5.41216000
O      -16.31525000       1.08078000      -5.10654000
H      -16.86039000       0.52046000      -4.57124000
H      -18.09841000      -0.42151000      -2.49895000
O      -17.62172000       0.38971000      -2.69941000
H      -18.31527000       1.02911000      -2.98682000
