6
Properties=species:S:1:pos:R:3 frame=T 35=T |=T Written=T by=T MDAnalysis=T XYZWriter=T (release=T 2.4.3)=T pbc="F F F"
H        0.48698000       5.39586000       6.52521000
O        0.09913000       4.88919000       5.80660000
H        0.78305000       4.70836000       5.17009000
H        2.11209000       3.60794000       3.38917000
O        1.50095000       4.35210000       3.44599000
H        2.12879000       5.07811000       3.36910000
