6
Properties=species:S:1:pos:R:3 frame=T 43=T |=T Written=T by=T MDAnalysis=T XYZWriter=T (release=T 2.4.3)=T pbc="F F F"
H      -17.67450000      -2.15151000      -7.21313000
O      -17.45348000      -2.02109000      -6.28340000
H      -17.10690000      -1.11832000      -6.29295000
H      -17.79909000      -3.91122000      -8.94730000
O      -18.08172000      -3.01936000      -8.69465000
H      -19.03063000      -3.15616000      -8.61908000
