6
Properties=species:S:1:pos:R:3 frame=T 22=T |=T Written=T by=T MDAnalysis=T XYZWriter=T (release=T 2.4.3)=T pbc="F F F"
H       11.81064000      13.51946000      17.03391000
O       12.76847000      13.49339000      16.94929000
H       13.12263000      14.28853000      17.40851000
H       13.57697000      12.56611000      18.27588000
O       14.09492000      11.85474000      18.68120000
H       14.59329000      12.34341000      19.36138000
