6
Properties=species:S:1:pos:R:3 frame=T 11=T |=T Written=T by=T MDAnalysis=T XYZWriter=T (release=T 2.4.3)=T pbc="F F F"
H        5.06365000      -5.66801000       0.24201000
O        5.05079000      -4.76739000       0.51682000
H        4.32283000      -4.75015000       1.15075000
H        4.29357000      -7.91981000       0.89903000
O        4.81120000      -7.51957000       0.21550000
H        4.84580000      -8.22846000      -0.44714000
