6
Properties=species:S:1:pos:R:3 frame=T 10=T |=T Written=T by=T MDAnalysis=T XYZWriter=T (release=T 2.4.3)=T pbc="F F F"
H       -2.56205000     -16.17846000      -3.69838000
O       -1.81564000     -15.57615000      -3.80750000
H       -1.40396000     -15.87679000      -4.61181000
H       -4.48982000     -16.84081000      -3.78514000
O       -4.21981000     -16.64329000      -2.88188000
H       -4.51881000     -17.44814000      -2.38241000
