6
Properties=species:S:1:pos:R:3 frame=T 34=T |=T Written=T by=T MDAnalysis=T XYZWriter=T (release=T 2.4.3)=T pbc="F F F"
H      -17.21173000      -8.76680000      -6.51140000
O      -16.78019000      -7.89156000      -6.42504000
H      -16.69975000      -7.75454000      -5.46830000
H      -18.16546000     -11.32390000      -6.07972000
O      -17.69597000     -10.47917000      -5.84360000
H      -17.94494000     -10.37076000      -4.91039000
