6
Properties=species:S:1:pos:R:3 frame=T 2=T |=T Written=T by=T MDAnalysis=T XYZWriter=T (release=T 2.4.3)=T pbc="F F F"
H        1.61142000     -17.29148000       1.80314000
O        2.43842000     -17.05252000       1.38718000
H        2.15088000     -16.86111000       0.46448000
H        3.77335000     -15.67067000       0.54215000
O        3.84914000     -15.20925000      -0.30281000
H        4.03828000     -15.91929000      -0.96586000
