6
Properties=species:S:1:pos:R:3 frame=T 48=T |=T Written=T by=T MDAnalysis=T XYZWriter=T (release=T 2.4.3)=T pbc="F F F"
H      -15.98906000       9.78907000       5.52647000
O      -16.11499000      10.73590000       5.36576000
H      -16.68453000      10.72705000       4.57320000
H      -14.05769000      10.92756000       3.31904000
O      -14.19533000      10.10782000       3.74249000
H      -14.85469000      10.28254000       4.42795000
