6
Properties=species:S:1:pos:R:3 frame=T 41=T |=T Written=T by=T MDAnalysis=T XYZWriter=T (release=T 2.4.3)=T pbc="F F F"
H        3.43695000       7.20130000      -6.53324000
O        3.60620000       8.13929000      -6.48018000
H        3.99353000       8.28988000      -5.62723000
H        2.51189000       5.66260000      -7.92352000
O        1.93649000       6.04829000      -7.22560000
H        2.22555000       5.67868000      -6.40556000
