6
Properties=species:S:1:pos:R:3 frame=T 34=T |=T Written=T by=T MDAnalysis=T XYZWriter=T (release=T 2.4.3)=T pbc="F F F"
H       17.15061000      -7.79875000       5.69410000
O       16.24089000      -7.54764000       5.46128000
H       16.38774000      -6.65210000       5.16134000
H       16.18955000      -4.90764000       4.67866000
O       16.04825000      -5.23062000       3.75533000
H       15.10239000      -5.20742000       3.61030000
