6
Properties=species:S:1:pos:R:3 frame=T 17=T |=T Written=T by=T MDAnalysis=T XYZWriter=T (release=T 2.4.3)=T pbc="F F F"
H       -2.54684000      -6.47572000      13.47016000
O       -2.02936000      -7.13217000      12.99688000
H       -1.60626000      -7.59493000      13.74260000
H       -1.15446000      -7.92917000      11.75063000
O       -0.85209000      -8.01809000      10.82228000
H        0.13307000      -8.05730000      10.88143000
