6
Properties=species:S:1:pos:R:3 frame=T 16=T |=T Written=T by=T MDAnalysis=T XYZWriter=T (release=T 2.4.3)=T pbc="F F F"
H        1.87212000      -9.16506000       3.91661000
O        2.44797000      -8.52311000       3.47837000
H        1.85973000      -7.79105000       3.20902000
H        2.94086000     -10.27393000       0.69737000
O        2.74031000      -9.34015000       0.60400000
H        2.59376000      -9.12503000       1.53391000
