6
Properties=species:S:1:pos:R:3 frame=T 46=T |=T Written=T by=T MDAnalysis=T XYZWriter=T (release=T 2.4.3)=T pbc="F F F"
H        7.31378000     -18.23960000      -3.75620000
O        7.19763000     -19.13036000      -4.11471000
H        6.63410000     -18.99822000      -4.90579000
H        7.61732000     -16.05290000      -2.33412000
O        7.69842000     -16.48446000      -3.17436000
H        8.62587000     -16.60988000      -3.26333000
