6
Properties=species:S:1:pos:R:3 frame=T 28=T |=T Written=T by=T MDAnalysis=T XYZWriter=T (release=T 2.4.3)=T pbc="F F F"
H       -8.46974000     -13.81320000     -18.75142000
O       -7.78317000     -14.45006000     -18.54848000
H       -6.98236000     -14.05245000     -18.83699000
H       -7.66402000     -14.35474000     -16.72488000
O       -7.33051000     -14.44200000     -15.81440000
H       -6.70974000     -15.16231000     -15.87370000
