6
Properties=species:S:1:pos:R:3 frame=T 38=T |=T Written=T by=T MDAnalysis=T XYZWriter=T (release=T 2.4.3)=T pbc="F F F"
H      -17.90593000     -10.93721000     -12.58214000
O      -17.57989000     -11.65100000     -12.02379000
H      -17.19451000     -12.26826000     -12.64458000
H      -15.38891000      -9.78016000     -10.97329000
O      -15.67075000     -10.50566000     -10.41174000
H      -16.25710000     -10.96553000     -10.98163000
