6
Properties=species:S:1:pos:R:3 frame=T 12=T |=T Written=T by=T MDAnalysis=T XYZWriter=T (release=T 2.4.3)=T pbc="F F F"
H       -5.47832000      12.38503000       6.23531000
O       -5.44913000      12.17930000       5.29163000
H       -6.33993000      11.82083000       5.13665000
H       -4.54073000      12.94279000       8.62014000
O       -4.45802000      12.55231000       7.73278000
H       -4.36856000      11.60475000       7.88686000
