6
Properties=species:S:1:pos:R:3 frame=T 3=T |=T Written=T by=T MDAnalysis=T XYZWriter=T (release=T 2.4.3)=T pbc="F F F"
H       15.70812000     -16.29840000       1.19435000
O       16.07579000     -16.85470000       1.89083000
H       16.90096000     -16.48136000       2.16990000
H       14.93313000     -18.52763000       3.90785000
O       14.62763000     -17.60766000       3.99811000
H       15.01379000     -17.18563000       3.20083000
