6
Properties=species:S:1:pos:R:3 frame=T 41=T |=T Written=T by=T MDAnalysis=T XYZWriter=T (release=T 2.4.3)=T pbc="F F F"
H        9.77291000       9.87205000      15.57230000
O       10.51443000       9.35323000      15.21745000
H       10.45837000       9.55365000      14.29476000
H       10.68933000      10.66216000      12.52618000
O       10.62867000       9.73364000      12.27577000
H        9.70311000       9.72809000      11.97714000
