6
Properties=species:S:1:pos:R:3 frame=T 45=T |=T Written=T by=T MDAnalysis=T XYZWriter=T (release=T 2.4.3)=T pbc="F F F"
H      -11.74704000       8.27190000     -10.11999000
O      -12.02073000       8.73272000     -10.88205000
H      -11.37802000       8.55598000     -11.59778000
H      -11.18438000       6.50467000      -8.44339000
O      -11.07817000       7.44720000      -8.58526000
H      -12.02377000       7.74331000      -8.44254000
