6
Properties=species:S:1:pos:R:3 frame=T 26=T |=T Written=T by=T MDAnalysis=T XYZWriter=T (release=T 2.4.3)=T pbc="F F F"
H       13.51068000     -11.74675000      11.85972000
O       12.74810000     -12.25970000      12.10030000
H       12.84119000     -12.37003000      13.07827000
H       12.05739000     -13.80083000      11.57273000
O       11.73555000     -14.66092000      11.33579000
H       11.35910000     -14.54199000      10.48594000
