6
Properties=species:S:1:pos:R:3 frame=T 21=T |=T Written=T by=T MDAnalysis=T XYZWriter=T (release=T 2.4.3)=T pbc="F F F"
H      -14.56239000      -5.47435000     -12.09060000
O      -14.00147000      -6.23155000     -11.95018000
H      -14.58411000      -6.96161000     -11.63042000
H      -15.52776000      -4.82508000     -14.01529000
O      -15.63932000      -4.44362000     -13.11720000
H      -15.17525000      -3.56115000     -13.17200000
