6
Properties=species:S:1:pos:R:3 frame=T 28=T |=T Written=T by=T MDAnalysis=T XYZWriter=T (release=T 2.4.3)=T pbc="F F F"
H       -8.72935000       0.17441000       5.65088000
O       -9.44705000       0.62985000       6.11890000
H       -9.35576000       0.36213000       7.04238000
H       -9.07195000      -1.28881000       8.96669000
O       -9.60644000      -0.49747000       8.76199000
H      -10.44672000      -0.92703000       8.65116000
