6
Properties=species:S:1:pos:R:3 frame=T 7=T |=T Written=T by=T MDAnalysis=T XYZWriter=T (release=T 2.4.3)=T pbc="F F F"
H       11.52622000     -14.43609000       5.24692000
O       11.69811000     -14.73354000       6.16719000
H       11.75818000     -13.90033000       6.62903000
H       11.37633000     -14.89483000       2.72271000
O       11.45639000     -14.16308000       3.36017000
H       10.52298000     -13.86088000       3.37223000
