6
Properties=species:S:1:pos:R:3 frame=T 34=T |=T Written=T by=T MDAnalysis=T XYZWriter=T (release=T 2.4.3)=T pbc="F F F"
H       17.33384000      -5.34693000      -7.21232000
O       18.26580000      -5.12347000      -7.13007000
H       18.37749000      -4.77659000      -6.21492000
H       15.70043000      -6.59139000      -7.52896000
O       16.00166000      -5.87214000      -8.14156000
H       15.28881000      -5.24138000      -8.14772000
