6
Properties=species:S:1:pos:R:3 frame=T 35=T |=T Written=T by=T MDAnalysis=T XYZWriter=T (release=T 2.4.3)=T pbc="F F F"
H      -10.75697000       4.57050000       8.30023000
O      -10.14356000       4.92639000       7.69037000
H      -10.63726000       4.84323000       6.85706000
H       -9.66625000       5.16017000       5.20635000
O      -10.58560000       5.17575000       4.95751000
H      -10.71572000       6.11675000       4.72710000
