6
Properties=species:S:1:pos:R:3 frame=T 9=T |=T Written=T by=T MDAnalysis=T XYZWriter=T (release=T 2.4.3)=T pbc="F F F"
H       -0.97638000      16.45615000       5.37361000
O       -1.60042000      15.96836000       5.93346000
H       -2.38766000      16.55295000       5.96464000
H       -1.94621000      15.46155000       3.92700000
O       -1.39769000      15.11436000       3.22146000
H       -1.75554000      15.54654000       2.42633000
