6
Properties=species:S:1:pos:R:3 frame=T 42=T |=T Written=T by=T MDAnalysis=T XYZWriter=T (release=T 2.4.3)=T pbc="F F F"
H       -0.89397000     -13.80175000      16.95076000
O       -1.10904000     -12.86333000      17.12500000
H       -0.22121000     -12.50276000      17.32520000
H       -2.50531000     -11.84253000      16.69114000
O       -2.83162000     -11.03181000      16.25832000
H       -2.58172000     -10.36511000      16.89451000
