6
Properties=species:S:1:pos:R:3 frame=T 21=T |=T Written=T by=T MDAnalysis=T XYZWriter=T (release=T 2.4.3)=T pbc="F F F"
H      -14.27284000       7.96756000      -3.07705000
O      -13.54139000       8.09095000      -3.66769000
H      -12.86402000       8.55848000      -3.12634000
H      -14.98388000       9.70387000      -6.22713000
O      -14.14534000       9.24300000      -6.06887000
H      -14.16122000       8.98402000      -5.14159000
