6
Properties=species:S:1:pos:R:3 frame=T 47=T |=T Written=T by=T MDAnalysis=T XYZWriter=T (release=T 2.4.3)=T pbc="F F F"
H       16.22041000      -3.16210000      15.07297000
O       16.64559000      -3.24963000      14.21003000
H       16.39826000      -2.43151000      13.71919000
H       16.40157000      -4.99923000      14.21799000
O       15.82644000      -5.74241000      14.38952000
H       15.83916000      -6.29171000      13.59751000
