6
Properties=species:S:1:pos:R:3 frame=T 38=T |=T Written=T by=T MDAnalysis=T XYZWriter=T (release=T 2.4.3)=T pbc="F F F"
H        5.75445000      18.63963000      -8.90367000
O        6.61114000      19.04370000      -9.08597000
H        6.91786000      18.48927000      -9.81149000
H        7.39336000      16.51580000     -11.60225000
O        7.57135000      17.22050000     -11.00058000
H        8.19934000      17.81077000     -11.40847000
