6
Properties=species:S:1:pos:R:3 frame=T 2=T |=T Written=T by=T MDAnalysis=T XYZWriter=T (release=T 2.4.3)=T pbc="F F F"
H      -17.07532000     -19.30819000      -2.91673000
O      -17.31902000     -18.68243000      -3.64474000
H      -16.44978000     -18.43645000      -4.05428000
H      -14.34717000     -19.17193000      -4.74026000
O      -14.64711000     -18.36041000      -4.30184000
H      -14.61510000     -17.68515000      -4.96812000
