6
Properties=species:S:1:pos:R:3 frame=T 46=T |=T Written=T by=T MDAnalysis=T XYZWriter=T (release=T 2.4.3)=T pbc="F F F"
H       -4.94006000       7.00990000     -15.07057000
O       -4.83348000       6.07633000     -14.90610000
H       -5.40509000       5.60493000     -15.52446000
H       -3.42340000       6.09303000     -16.27605000
O       -2.55489000       6.09373000     -16.71078000
H       -2.00310000       5.49152000     -16.23055000
