6
Properties=species:S:1:pos:R:3 frame=T 20=T |=T Written=T by=T MDAnalysis=T XYZWriter=T (release=T 2.4.3)=T pbc="F F F"
H       -4.69515000      -4.96226000      -1.33760000
O       -4.60805000      -5.44452000      -2.16315000
H       -4.95919000      -6.33549000      -1.98728000
H       -3.22250000      -4.48410000       0.49284000
O       -3.59785000      -3.88596000      -0.15652000
H       -2.87602000      -3.49662000      -0.63871000
