6
Properties=species:S:1:pos:R:3 frame=T 36=T |=T Written=T by=T MDAnalysis=T XYZWriter=T (release=T 2.4.3)=T pbc="F F F"
H      -12.38407000      18.47348000      14.06513000
O      -12.93755000      18.98198000      14.70650000
H      -13.85150000      18.74617000      14.48959000
H      -15.04350000      17.26276000      13.54564000
O      -15.26321000      18.20117000      13.56947000
H      -16.18674000      18.20649000      13.85622000
