6
Properties=species:S:1:pos:R:3 frame=T 7=T |=T Written=T by=T MDAnalysis=T XYZWriter=T (release=T 2.4.3)=T pbc="F F F"
H       -6.33636000       4.91625000       2.93214000
O       -6.47312000       5.47752000       2.15915000
H       -5.81356000       6.15931000       2.26580000
H       -8.19921000       5.56251000       2.70365000
O       -8.92250000       5.46881000       3.33326000
H       -9.67447000       5.22034000       2.73556000
