6
Properties=species:S:1:pos:R:3 frame=T 12=T |=T Written=T by=T MDAnalysis=T XYZWriter=T (release=T 2.4.3)=T pbc="F F F"
H       16.64833000       2.76789000      18.52249000
O       17.27889000       2.53388000      19.22269000
H       18.13835000       2.83462000      18.83161000
H       18.99446000      -0.13239000      18.52431000
O       18.06079000      -0.22298000      18.62137000
H       17.73442000       0.65825000      18.85966000
