6
Properties=species:S:1:pos:R:3 frame=T 20=T |=T Written=T by=T MDAnalysis=T XYZWriter=T (release=T 2.4.3)=T pbc="F F F"
H       -0.75947000     -16.58978000      -4.72854000
O       -0.69600000     -16.90110000      -5.61950000
H       -1.17011000     -16.17968000      -6.04304000
H        0.49432000     -16.96389000      -3.03203000
O        0.11983000     -17.82661000      -3.10770000
H       -0.79686000     -17.66165000      -2.81845000
