6
Properties=species:S:1:pos:R:3 frame=T 17=T |=T Written=T by=T MDAnalysis=T XYZWriter=T (release=T 2.4.3)=T pbc="F F F"
H      -18.51750000      12.82345000      -8.02820000
O      -18.30662000      12.85778000      -7.09642000
H      -18.22350000      13.81485000      -6.96796000
H      -19.02842000      12.87429000     -10.28840000
O      -18.34490000      12.42081000      -9.81114000
H      -17.53062000      12.91864000      -9.99072000
