6
Properties=species:S:1:pos:R:3 frame=T 10=T |=T Written=T by=T MDAnalysis=T XYZWriter=T (release=T 2.4.3)=T pbc="F F F"
H      -14.97934000      18.56526000      -5.48829000
O      -15.02762000      18.76718000      -6.43672000
H      -15.85768000      19.28036000      -6.46899000
H      -18.61821000      18.76619000      -6.79182000
O      -17.64905000      18.77788000      -6.79529000
H      -17.41714000      18.05704000      -7.38314000
