6
Properties=species:S:1:pos:R:3 frame=T 36=T |=T Written=T by=T MDAnalysis=T XYZWriter=T (release=T 2.4.3)=T pbc="F F F"
H        5.08791000      -1.55927000     -16.62341000
O        5.30760000      -1.55648000     -15.67535000
H        6.28138000      -1.48207000     -15.76840000
H        4.27120000      -0.91195000     -18.92823000
O        4.37225000      -1.57083000     -18.26405000
H        3.56008000      -1.50616000     -17.73685000
