6
Properties=species:S:1:pos:R:3 frame=T 43=T |=T Written=T by=T MDAnalysis=T XYZWriter=T (release=T 2.4.3)=T pbc="F F F"
H        9.92686000      12.41530000     -16.70932000
O        9.69682000      11.57142000     -17.14244000
H        8.75264000      11.57498000     -17.03885000
H        6.64295000      10.90558000     -17.21217000
O        7.17651000      10.08756000     -17.25584000
H        7.24416000       9.83634000     -16.34186000
