6
Properties=species:S:1:pos:R:3 frame=T 31=T |=T Written=T by=T MDAnalysis=T XYZWriter=T (release=T 2.4.3)=T pbc="F F F"
H       -9.16985000      18.72790000      -5.32062000
O       -9.11617000      17.93275000      -5.86084000
H       -8.64849000      17.33799000      -5.26419000
H      -10.21522000      18.21537000      -8.67566000
O       -9.24638000      18.17868000      -8.50750000
H       -9.24283000      18.05863000      -7.57189000
