6
Properties=species:S:1:pos:R:3 frame=T 45=T |=T Written=T by=T MDAnalysis=T XYZWriter=T (release=T 2.4.3)=T pbc="F F F"
H      -17.90858000       4.76774000       0.68937000
O      -18.85768000       4.84769000       0.81530000
H      -19.27551000       4.11807000       0.36729000
H      -16.28091000       4.64390000       1.53318000
O      -16.03657000       5.19071000       0.78203000
H      -15.33753000       4.70019000       0.36187000
