6
Properties=species:S:1:pos:R:3 frame=T 42=T |=T Written=T by=T MDAnalysis=T XYZWriter=T (release=T 2.4.3)=T pbc="F F F"
H      -16.08713000     -10.21140000       4.85167000
O      -16.31895000      -9.98110000       3.92606000
H      -17.27785000     -10.16614000       3.86261000
H      -17.86513000     -10.71897000       1.16278000
O      -17.32380000      -9.87303000       1.11363000
H      -16.94570000      -9.73793000       1.97824000
