6
Properties=species:S:1:pos:R:3 frame=T 41=T |=T Written=T by=T MDAnalysis=T XYZWriter=T (release=T 2.4.3)=T pbc="F F F"
H      -10.73290000      -4.93459000       3.02717000
O       -9.96127000      -5.21427000       3.52813000
H      -10.00366000      -4.57637000       4.26005000
H      -10.42715000      -6.70589000       4.84419000
O      -10.39634000      -7.57526000       5.29049000
H       -9.92586000      -8.10048000       4.63359000
