6
Properties=species:S:1:pos:R:3 frame=T 31=T |=T Written=T by=T MDAnalysis=T XYZWriter=T (release=T 2.4.3)=T pbc="F F F"
H      -17.76825000      -3.29728000       1.88880000
O      -17.52036000      -3.37392000       2.84102000
H      -17.50025000      -2.45207000       3.16760000
H      -17.48474000      -3.55094000       6.82672000
O      -17.98880000      -2.81766000       6.44898000
H      -18.52358000      -3.16406000       5.74869000
