6
Properties=species:S:1:pos:R:3 frame=T 6=T |=T Written=T by=T MDAnalysis=T XYZWriter=T (release=T 2.4.3)=T pbc="F F F"
H        6.24801000     -18.12420000      -0.24786000
O        5.68526000     -17.58304000      -0.78815000
H        4.83650000     -17.57413000      -0.28583000
H        4.15538000     -18.03884000      -3.10562000
O        4.11863000     -17.15138000      -3.52043000
H        4.69815000     -17.23512000      -4.26938000
