6
Properties=species:S:1:pos:R:3 frame=T 48=T |=T Written=T by=T MDAnalysis=T XYZWriter=T (release=T 2.4.3)=T pbc="F F F"
H      -12.17533000     -17.48267000       7.00251000
O      -11.40470000     -16.89331000       6.84683000
H      -11.61987000     -16.44024000       6.02590000
H      -12.90269000     -15.58784000       3.28755000
O      -12.32742000     -15.15415000       3.96201000
H      -12.19908000     -14.24581000       3.67195000
