6
Properties=species:S:1:pos:R:3 frame=T 26=T |=T Written=T by=T MDAnalysis=T XYZWriter=T (release=T 2.4.3)=T pbc="F F F"
H        4.59320000      -4.62756000      -8.42909000
O        5.56118000      -4.71690000      -8.55703000
H        5.70145000      -3.84021000      -8.91523000
H        7.36429000      -6.59579000     -11.21883000
O        6.46324000      -6.79821000     -10.89763000
H        6.26301000      -6.08708000     -10.27474000
