6
Properties=species:S:1:pos:R:3 frame=T 29=T |=T Written=T by=T MDAnalysis=T XYZWriter=T (release=T 2.4.3)=T pbc="F F F"
H       -5.80474000     -17.98580000      10.76989000
O       -5.78701000     -18.23063000      11.70446000
H       -5.47147000     -17.44559000      12.18840000
H       -6.62982000     -16.94642000      14.98481000
O       -6.27038000     -16.63926000      14.13432000
H       -5.93599000     -15.77670000      14.34910000
