6
Properties=species:S:1:pos:R:3 frame=T 41=T |=T Written=T by=T MDAnalysis=T XYZWriter=T (release=T 2.4.3)=T pbc="F F F"
H       18.15623000      16.96717000      12.94617000
O       18.27010000      17.84583000      13.36751000
H       18.85010000      18.32750000      12.76002000
H       16.46535000      17.57686000      15.09033000
O       16.61853000      16.91358000      15.79832000
H       17.27744000      17.31626000      16.36419000
