6
Properties=species:S:1:pos:R:3 frame=T 53=T |=T Written=T by=T MDAnalysis=T XYZWriter=T (release=T 2.4.3)=T pbc="F F F"
H       17.26838000      15.72808000     -17.44540000
O       17.31568000      15.69466000     -16.49138000
H       17.81976000      16.49400000     -16.24055000
H       14.79235000      16.94436000     -16.42399000
O       14.91181000      17.83241000     -16.74067000
H       14.87008000      17.72595000     -17.72056000
