6
Properties=species:S:1:pos:R:3 frame=T 28=T |=T Written=T by=T MDAnalysis=T XYZWriter=T (release=T 2.4.3)=T pbc="F F F"
H      -13.16594000      11.26311000       2.84783000
O      -12.27926000      10.87927000       2.78020000
H      -11.72471000      11.65427000       2.76567000
H      -11.25716000       9.17297000       4.06668000
O      -12.00877000       8.76746000       4.52050000
H      -11.57367000       8.05342000       4.98327000
