6
Properties=species:S:1:pos:R:3 frame=T 6=T |=T Written=T by=T MDAnalysis=T XYZWriter=T (release=T 2.4.3)=T pbc="F F F"
H      -19.09704000      -5.65643000       7.69718000
O      -19.22056000      -5.31914000       6.79667000
H      -18.30300000      -5.28580000       6.42891000
H      -16.59045000      -5.59227000       6.92700000
O      -16.74318000      -5.16750000       6.03032000
H      -16.70222000      -4.20158000       6.19095000
