6
Properties=species:S:1:pos:R:3 frame=T 25=T |=T Written=T by=T MDAnalysis=T XYZWriter=T (release=T 2.4.3)=T pbc="F F F"
H       15.93378000      17.25556000      -5.16762000
O       16.73170000      16.74139000      -5.03475000
H       17.22249000      17.23713000      -4.33650000
H       17.43821000      16.78773000      -7.29288000
O       18.01198000      17.13547000      -8.00317000
H       18.27598000      16.31111000      -8.42283000
