6
Properties=species:S:1:pos:R:3 frame=T 45=T |=T Written=T by=T MDAnalysis=T XYZWriter=T (release=T 2.4.3)=T pbc="F F F"
H      -14.55531000      -7.69228000     -11.28088000
O      -13.82542000      -7.93811000     -11.85675000
H      -13.49201000      -7.12064000     -12.19561000
H      -15.29724000      -7.09139000      -9.57299000
O      -15.99674000      -6.89474000     -10.19091000
H      -16.58950000      -7.65130000     -10.04235000
