6
Properties=species:S:1:pos:R:3 frame=T 29=T |=T Written=T by=T MDAnalysis=T XYZWriter=T (release=T 2.4.3)=T pbc="F F F"
H       17.36747000      19.16008000       4.31005000
O       17.13103000      18.53718000       3.62066000
H       17.90485000      18.04051000       3.39817000
H       15.40708000      17.42204000       6.50573000
O       16.28546000      17.41169000       6.08968000
H       16.06547000      17.44421000       5.15674000
