6
Properties=species:S:1:pos:R:3 frame=T 34=T |=T Written=T by=T MDAnalysis=T XYZWriter=T (release=T 2.4.3)=T pbc="F F F"
H       11.39033000      13.26947000     -11.54143000
O       11.25320000      12.37428000     -11.23420000
H       10.28928000      12.29049000     -11.32231000
H        9.25270000      10.38940000      -9.51888000
O       10.18545000      10.20861000      -9.67726000
H       10.30034000      10.49999000     -10.57852000
