6
Properties=species:S:1:pos:R:3 frame=T 23=T |=T Written=T by=T MDAnalysis=T XYZWriter=T (release=T 2.4.3)=T pbc="F F F"
H       -8.83773000      17.63246000      -0.12317000
O       -9.76958000      17.45782000      -0.32098000
H       -9.90770000      16.70824000       0.28954000
H      -11.78862000      15.70528000      -2.14614000
O      -10.85244000      15.83395000      -2.14385000
H      -10.71244000      16.61462000      -1.58184000
