6
Properties=species:S:1:pos:R:3 frame=T 25=T |=T Written=T by=T MDAnalysis=T XYZWriter=T (release=T 2.4.3)=T pbc="F F F"
H        1.82927000      15.68408000      12.53341000
O        2.51320000      16.24224000      12.18789000
H        2.92150000      16.59317000      13.00314000
H        0.78441000      13.76416000      14.19975000
O        1.49294000      14.37422000      14.11322000
H        2.20993000      13.80216000      13.81550000
