6
Properties=species:S:1:pos:R:3 frame=T 32=T |=T Written=T by=T MDAnalysis=T XYZWriter=T (release=T 2.4.3)=T pbc="F F F"
H       18.30192000     -13.00318000       8.41193000
O       17.67772000     -12.34954000       8.03172000
H       17.48627000     -12.77309000       7.19695000
H       16.18387000     -14.42033000       5.88392000
O       16.74133000     -13.70252000       5.57071000
H       16.13835000     -12.95908000       5.34822000
