6
Properties=species:S:1:pos:R:3 frame=T 29=T |=T Written=T by=T MDAnalysis=T XYZWriter=T (release=T 2.4.3)=T pbc="F F F"
H       13.92742000      15.08562000      13.61686000
O       13.18582000      15.67859000      13.37671000
H       12.94038000      15.53881000      12.45677000
H       15.05557000      13.73704000      14.98607000
O       15.33677000      14.32321000      14.27068000
H       16.10345000      14.80564000      14.59152000
