6
Properties=species:S:1:pos:R:3 frame=T 52=T |=T Written=T by=T MDAnalysis=T XYZWriter=T (release=T 2.4.3)=T pbc="F F F"
H        6.25614000      -4.56569000     -17.03913000
O        7.10920000      -4.85268000     -17.31956000
H        7.20353000      -5.74226000     -16.93706000
H        9.37785000      -7.10815000     -16.36528000
O        8.54465000      -7.16901000     -16.86615000
H        7.89359000      -7.25508000     -16.13197000
