6
Properties=species:S:1:pos:R:3 frame=T 33=T |=T Written=T by=T MDAnalysis=T XYZWriter=T (release=T 2.4.3)=T pbc="F F F"
H       15.33170000     -12.28708000      16.80423000
O       15.01849000     -12.92363000      17.48050000
H       15.82819000     -13.31290000      17.84757000
H       13.33756000     -12.53850000      17.49992000
O       12.44691000     -12.27857000      17.45571000
H       11.99467000     -13.07770000      17.15372000
