6
Properties=species:S:1:pos:R:3 frame=T 14=T |=T Written=T by=T MDAnalysis=T XYZWriter=T (release=T 2.4.3)=T pbc="F F F"
H        1.07070000       0.52517000       3.35321000
O        0.22025000       0.98964000       3.37529000
H       -0.08893000       0.89909000       4.27030000
H       -0.62609000       2.16866000       2.53823000
O       -1.19095000       2.72931000       1.99598000
H       -0.68921000       3.52061000       1.87086000
