6
Properties=species:S:1:pos:R:3 frame=T 48=T |=T Written=T by=T MDAnalysis=T XYZWriter=T (release=T 2.4.3)=T pbc="F F F"
H        4.48772000       5.39207000     -12.87395000
O        4.21647000       5.99590000     -12.18838000
H        3.49007000       6.50237000     -12.54999000
H        2.13847000       3.93863000     -10.86217000
O        2.82280000       4.39041000     -10.35445000
H        3.25830000       4.92181000     -11.03944000
