6
Properties=species:S:1:pos:R:3 frame=T 36=T |=T Written=T by=T MDAnalysis=T XYZWriter=T (release=T 2.4.3)=T pbc="F F F"
H        5.13178000      18.02658000       0.37662000
O        5.60511000      18.20330000       1.15684000
H        5.02055000      18.86031000       1.54714000
H        7.34060000      18.34800000       0.82302000
O        8.26595000      18.25850000       1.11099000
H        8.60560000      17.46882000       0.69218000
