6
Properties=species:S:1:pos:R:3 frame=T 1=T |=T Written=T by=T MDAnalysis=T XYZWriter=T (release=T 2.4.3)=T pbc="F F F"
H       17.98528000      13.68550000       4.44405000
O       17.22213000      13.15482000       4.10555000
H       16.82469000      12.74602000       4.88819000
H       18.09235000      11.79485000       3.33667000
O       18.76312000      11.27816000       2.85681000
H       18.52988000      11.45564000       1.94853000
