6
Properties=species:S:1:pos:R:3 frame=T 10=T |=T Written=T by=T MDAnalysis=T XYZWriter=T (release=T 2.4.3)=T pbc="F F F"
H       10.60934000      -0.32140000     -12.01904000
O       10.30289000      -0.92024000     -11.34462000
H       10.21505000      -0.29413000     -10.61677000
H        9.65767000       1.27254000      -8.97841000
O        9.96687000       1.44613000      -9.87789000
H       10.78522000       1.95325000      -9.79163000
