6
Properties=species:S:1:pos:R:3 frame=T 3=T |=T Written=T by=T MDAnalysis=T XYZWriter=T (release=T 2.4.3)=T pbc="F F F"
H       15.35901000       5.43106000      -2.63604000
O       15.28335000       4.45354000      -2.67810000
H       16.19277000       4.15481000      -2.63604000
H       14.05563000       4.82241000      -1.15900000
O       13.56091000       4.80266000      -0.36516000
H       12.64991000       4.70077000      -0.66238000
