6
Properties=species:S:1:pos:R:3 frame=T 19=T |=T Written=T by=T MDAnalysis=T XYZWriter=T (release=T 2.4.3)=T pbc="F F F"
H        2.65023000      18.62097000      -5.10475000
O        3.14408000      18.46770000      -4.26083000
H        2.47039000      18.60668000      -3.58819000
H        4.94312000      16.44138000      -3.26788000
O        5.32249000      17.27641000      -3.51741000
H        4.55833000      17.73038000      -3.89861000
