6
Properties=species:S:1:pos:R:3 frame=T 20=T |=T Written=T by=T MDAnalysis=T XYZWriter=T (release=T 2.4.3)=T pbc="F F F"
H       -0.92181000      -8.02032000      12.02545000
O        0.03543000      -8.08348000      12.01526000
H        0.27711000      -8.25982000      11.09052000
H       -0.77785000      -8.59396000       9.07313000
O        0.14361000      -8.68465000       9.35388000
H        0.35776000      -9.52438000       8.91016000
