6
Properties=species:S:1:pos:R:3 frame=T 29=T |=T Written=T by=T MDAnalysis=T XYZWriter=T (release=T 2.4.3)=T pbc="F F F"
H       14.24294000      -6.88904000      -1.34657000
O       13.57343000      -7.52294000      -1.30875000
H       13.83446000      -8.09252000      -2.05387000
H       11.88014000      -7.24530000      -0.95912000
O       11.12533000      -6.84943000      -0.49975000
H       10.50241000      -6.80205000      -1.24902000
