6
Properties=species:S:1:pos:R:3 frame=T 23=T |=T Written=T by=T MDAnalysis=T XYZWriter=T (release=T 2.4.3)=T pbc="F F F"
H        1.44655000      -1.23075000       7.00281000
O        1.21456000      -2.04088000       6.56685000
H        1.55266000      -1.83563000       5.66910000
H        1.99563000       1.07587000       8.24704000
O        1.61636000       0.79205000       7.39989000
H        2.36028000       0.83864000       6.78088000
