6
Properties=species:S:1:pos:R:3 frame=T 40=T |=T Written=T by=T MDAnalysis=T XYZWriter=T (release=T 2.4.3)=T pbc="F F F"
H        2.50077000       5.07842000       7.68539000
O        2.19321000       5.11045000       8.59790000
H        2.84298000       4.56854000       9.05625000
H        1.75471000       5.35262000       5.71358000
O        2.72527000       5.20694000       5.83305000
H        3.06818000       6.11466000       5.90418000
