6
Properties=species:S:1:pos:R:3 frame=T 42=T |=T Written=T by=T MDAnalysis=T XYZWriter=T (release=T 2.4.3)=T pbc="F F F"
H        5.74583000      -1.84767000      -8.26415000
O        6.15365000      -0.96396000      -8.20830000
H        6.82562000      -1.07237000      -8.91575000
H        9.23744000      -0.56135000      -7.26218000
O        8.60577000      -0.21864000      -6.63610000
H        7.76002000      -0.30713000      -7.12566000
