6
Properties=species:S:1:pos:R:3 frame=T 52=T |=T Written=T by=T MDAnalysis=T XYZWriter=T (release=T 2.4.3)=T pbc="F F F"
H       -1.54967000      11.05338000     -10.62631000
O       -1.69662000      11.66011000      -9.88810000
H       -1.18722000      12.42146000     -10.12908000
H       -3.42967000      11.25596000     -10.33564000
O       -4.36480000      11.54617000     -10.36621000
H       -4.77880000      10.75662000     -10.68766000
