6
Properties=species:S:1:pos:R:3 frame=T 50=T |=T Written=T by=T MDAnalysis=T XYZWriter=T (release=T 2.4.3)=T pbc="F F F"
H        9.06311000      13.68812000      12.06703000
O        9.33509000      14.56514000      12.40093000
H        9.19846000      15.11045000      11.60814000
H        7.60472000      16.54648000      11.68793000
O        8.11303000      16.34079000      10.88804000
H        8.08548000      17.15667000      10.35862000
