6
Properties=species:S:1:pos:R:3 frame=T 36=T |=T Written=T by=T MDAnalysis=T XYZWriter=T (release=T 2.4.3)=T pbc="F F F"
H        1.90190000      -4.49569000      15.60458000
O        2.38042000      -5.32396000      15.50343000
H        2.93817000      -5.30354000      16.29935000
H        1.01168000      -2.64463000      16.06147000
O        0.78044000      -3.26336000      15.36937000
H        0.83311000      -2.74343000      14.54426000
