6
Properties=species:S:1:pos:R:3 frame=T 1=T |=T Written=T by=T MDAnalysis=T XYZWriter=T (release=T 2.4.3)=T pbc="F F F"
H      -18.35981000     -12.59430000      -9.30844000
O      -18.01291000     -12.92917000      -8.46066000
H      -17.47304000     -13.70424000      -8.71177000
H      -16.63990000     -10.08286000      -8.43142000
O      -16.63953000     -10.57587000      -7.60155000
H      -17.18596000     -11.38729000      -7.77689000
