6
Properties=species:S:1:pos:R:3 frame=T 37=T |=T Written=T by=T MDAnalysis=T XYZWriter=T (release=T 2.4.3)=T pbc="F F F"
H       -1.30531000      14.71323000      10.40690000
O       -1.25012000      15.64723000      10.64655000
H       -0.63280000      16.08097000      10.06388000
H       -1.24006000      17.07352000      11.65838000
O       -0.98599000      17.83661000      12.20764000
H       -1.50592000      18.57684000      11.82913000
