6
Properties=species:S:1:pos:R:3 frame=T 8=T |=T Written=T by=T MDAnalysis=T XYZWriter=T (release=T 2.4.3)=T pbc="F F F"
H        8.76447000      13.19195000      19.40709000
O        8.27450000      13.71373000      18.74735000
H        8.07328000      13.07432000      18.01252000
H        5.22049000      12.83122000      17.86876000
O        5.50112000      13.76206000      17.89399000
H        6.31021000      13.65449000      18.45794000
