6
Properties=species:S:1:pos:R:3 frame=T 41=T |=T Written=T by=T MDAnalysis=T XYZWriter=T (release=T 2.4.3)=T pbc="F F F"
H      -16.86702000       9.39273000      16.55070000
O      -16.33540000      10.22579000      16.59976000
H      -15.48536000       9.84633000      16.77365000
H      -16.31321000      11.56157000      17.92474000
O      -16.38453000      12.42457000      18.37660000
H      -15.60949000      12.37829000      18.96333000
