6
Properties=species:S:1:pos:R:3 frame=T 29=T |=T Written=T by=T MDAnalysis=T XYZWriter=T (release=T 2.4.3)=T pbc="F F F"
H       12.61461000       2.71690000     -19.29139000
O       12.96842000       2.40909000     -18.45737000
H       12.79101000       3.15576000     -17.84386000
H       12.57754000       0.85454000     -16.04465000
O       12.53601000       0.26782000     -16.76671000
H       12.29651000       0.86346000     -17.50263000
