6
Properties=species:S:1:pos:R:3 frame=T 41=T |=T Written=T by=T MDAnalysis=T XYZWriter=T (release=T 2.4.3)=T pbc="F F F"
H      -11.94090000       3.94388000      14.36301000
O      -12.43283000       3.74968000      15.13795000
H      -12.62920000       4.61161000      15.55734000
H      -13.21702000       2.45227000      13.89079000
O      -14.01858000       1.95482000      13.89974000
H      -13.89124000       1.37526000      14.68338000
