6
Properties=species:S:1:pos:R:3 frame=T 11=T |=T Written=T by=T MDAnalysis=T XYZWriter=T (release=T 2.4.3)=T pbc="F F F"
H       18.38982000       4.89447000      -5.54506000
O       19.09496000       5.46919000      -5.17966000
H       19.33085000       5.02639000      -4.34365000
H       16.45086000       3.21642000      -6.67213000
O       17.17353000       3.81003000      -6.43640000
H       17.90583000       3.17454000      -6.27801000
