6
Properties=species:S:1:pos:R:3 frame=T 0=T |=T Written=T by=T MDAnalysis=T XYZWriter=T (release=T 2.4.3)=T pbc="F F F"
H      -17.56310000      -6.48391000      -4.37871000
O      -18.27949000      -6.76284000      -3.78974000
H      -17.90762000      -6.61059000      -2.90403000
H      -17.90755000      -9.65845000      -5.25494000
O      -17.77835000      -9.30327000      -4.35670000
H      -18.26927000      -8.45468000      -4.34874000
