6
Properties=species:S:1:pos:R:3 frame=T 22=T |=T Written=T by=T MDAnalysis=T XYZWriter=T (release=T 2.4.3)=T pbc="F F F"
H      -11.95997000       1.45100000      11.84075000
O      -11.75783000       1.39948000      12.81247000
H      -11.96970000       2.32047000      13.10447000
H       -9.88475000       0.87797000      12.58466000
O       -9.29553000       0.30242000      13.09874000
H       -8.77326000       1.01132000      13.52330000
