6
Properties=species:S:1:pos:R:3 frame=T 36=T |=T Written=T by=T MDAnalysis=T XYZWriter=T (release=T 2.4.3)=T pbc="F F F"
H       -2.20560000       6.20001000      13.25611000
O       -2.53339000       6.45953000      14.15951000
H       -2.60189000       5.64315000      14.68771000
H       -4.49928000       4.81482000      15.39152000
O       -3.65192000       4.76942000      15.83933000
H       -3.78144000       5.23671000      16.68538000
