6
Properties=species:S:1:pos:R:3 frame=T 47=T |=T Written=T by=T MDAnalysis=T XYZWriter=T (release=T 2.4.3)=T pbc="F F F"
H        1.14111000       7.50573000       3.58403000
O        1.03471000       7.90738000       4.49177000
H        0.27190000       8.49525000       4.38559000
H       -1.53525000       7.64771000       4.52061000
O       -1.66642000       8.55898000       4.17772000
H       -2.42355000       8.85541000       4.68564000
