6
Properties=species:S:1:pos:R:3 frame=T 45=T |=T Written=T by=T MDAnalysis=T XYZWriter=T (release=T 2.4.3)=T pbc="F F F"
H       18.05857000      -0.98594000      -0.46207000
O       18.00433000      -0.69789000       0.46486000
H       18.05992000      -1.51872000       0.98772000
H       16.32006000      -2.85846000       0.31378000
O       16.48718000      -2.99260000       1.25984000
H       16.46284000      -2.11251000       1.64085000
