6
Properties=species:S:1:pos:R:3 frame=T 35=T |=T Written=T by=T MDAnalysis=T XYZWriter=T (release=T 2.4.3)=T pbc="F F F"
H      -18.78941000       3.43309000      16.46715000
O      -18.43316000       3.20020000      17.32804000
H      -18.18014000       2.26617000      17.25048000
H      -15.91903000       5.88322000      17.97133000
O      -16.83741000       5.72222000      17.76815000
H      -16.81849000       5.02558000      17.12788000
