6
Properties=species:S:1:pos:R:3 frame=T 34=T |=T Written=T by=T MDAnalysis=T XYZWriter=T (release=T 2.4.3)=T pbc="F F F"
H      -12.14413000     -16.15250000       7.30039000
O      -11.77530000     -15.48131000       6.71116000
H      -12.33457000     -14.71550000       6.82264000
H      -13.23700000     -15.77400000       4.52679000
O      -13.55229000     -16.54235000       5.01631000
H      -13.10789000     -16.44151000       5.85212000
