6
Properties=species:S:1:pos:R:3 frame=T 22=T |=T Written=T by=T MDAnalysis=T XYZWriter=T (release=T 2.4.3)=T pbc="F F F"
H        4.42452000       7.22197000     -15.24381000
O        3.98517000       8.04828000     -15.12844000
H        3.31297000       7.85597000     -14.49039000
H        6.95228000       9.44351000     -15.28212000
O        6.41478000       9.01661000     -14.57872000
H        5.52026000       8.98200000     -14.94506000
