6
Properties=species:S:1:pos:R:3 frame=T 14=T |=T Written=T by=T MDAnalysis=T XYZWriter=T (release=T 2.4.3)=T pbc="F F F"
H        3.19878000      -0.83882000     -12.78853000
O        2.50065000      -1.16625000     -13.41113000
H        2.01434000      -0.34124000     -13.52598000
H        3.53095000      -2.50617000     -13.81786000
O        3.96375000      -3.35606000     -13.82563000
H        4.90129000      -3.12790000     -14.07511000
