6
Properties=species:S:1:pos:R:3 frame=T 52=T |=T Written=T by=T MDAnalysis=T XYZWriter=T (release=T 2.4.3)=T pbc="F F F"
H        2.91145000      10.63694000      -1.76655000
O        2.84774000      10.59960000      -2.74202000
H        3.71819000      10.29781000      -2.96597000
H        2.15568000      13.55841000      -3.55145000
O        1.88477000      12.82171000      -4.10155000
H        2.02755000      12.06852000      -3.50309000
