6
Properties=species:S:1:pos:R:3 frame=T 54=T |=T Written=T by=T MDAnalysis=T XYZWriter=T (release=T 2.4.3)=T pbc="F F F"
H        3.41755000     -17.83827000       2.34166000
O        3.36844000     -17.16155000       3.04021000
H        2.58585000     -16.65545000       2.78986000
H        4.80380000     -18.77819000       4.97380000
O        5.46013000     -18.31487000       4.48012000
H        5.01123000     -17.68642000       3.90039000
