6
Properties=species:S:1:pos:R:3 frame=T 50=T |=T Written=T by=T MDAnalysis=T XYZWriter=T (release=T 2.4.3)=T pbc="F F F"
H       13.31421000      -0.41835000      -4.69880000
O       13.35126000       0.50374000      -4.39355000
H       13.26228000       0.39319000      -3.40584000
H       11.98482000       0.68987000      -5.60562000
O       11.21668000       0.31895000      -6.09779000
H       11.33057000       0.65018000      -7.00463000
