6
Properties=species:S:1:pos:R:3 frame=T 29=T |=T Written=T by=T MDAnalysis=T XYZWriter=T (release=T 2.4.3)=T pbc="F F F"
H       17.83647000      16.01386000      -5.77277000
O       17.42608000      15.33180000      -5.20094000
H       18.22545000      14.88184000      -4.85588000
H       18.98899000      17.93799000      -3.02186000
O       18.95927000      17.14104000      -3.59964000
H       17.99603000      16.92682000      -3.69225000
