6
Properties=species:S:1:pos:R:3 frame=T 22=T |=T Written=T by=T MDAnalysis=T XYZWriter=T (release=T 2.4.3)=T pbc="F F F"
H      -11.07282000       2.59838000      18.59531000
O      -10.26992000       2.79657000      18.07415000
H      -10.25122000       2.14614000      17.34446000
H       -9.49423000       4.33277000      18.55081000
O       -9.29111000       5.22410000      18.84651000
H      -10.00505000       5.47718000      19.43761000
