6
Properties=species:S:1:pos:R:3 frame=T 46=T |=T Written=T by=T MDAnalysis=T XYZWriter=T (release=T 2.4.3)=T pbc="F F F"
H       10.30504000      10.87047000       1.19541000
O       10.95801000      10.35814000       0.66922000
H       10.88062000       9.48497000       1.06600000
H       13.77221000      10.90269000      -0.12027000
O       13.20615000      10.36583000      -0.66854000
H       12.32475000      10.56292000      -0.35019000
