6
Properties=species:S:1:pos:R:3 frame=T 23=T |=T Written=T by=T MDAnalysis=T XYZWriter=T (release=T 2.4.3)=T pbc="F F F"
H       -1.89133000     -17.81686000      19.12615000
O       -2.79958000     -18.07311000      18.91375000
H       -2.76451000     -19.04420000      19.14506000
H       -4.38871000     -17.32507000      18.74106000
O       -5.07241000     -16.64790000      18.64421000
H       -4.61772000     -15.86893000      19.00837000
