6
Properties=species:S:1:pos:R:3 frame=T 18=T |=T Written=T by=T MDAnalysis=T XYZWriter=T (release=T 2.4.3)=T pbc="F F F"
H        4.50361000     -11.96216000     -11.80683000
O        4.74133000     -11.13484000     -11.31672000
H        3.91932000     -10.63029000     -11.25449000
H        5.35558000     -11.53090000      -9.75407000
O        5.25141000     -11.97592000      -8.88653000
H        6.16841000     -12.19855000      -8.59205000
