6
Properties=species:S:1:pos:R:3 frame=T 42=T |=T Written=T by=T MDAnalysis=T XYZWriter=T (release=T 2.4.3)=T pbc="F F F"
H       16.65705000     -11.54143000      13.12108000
O       16.68502000     -12.38399000      12.63103000
H       16.30010000     -12.13809000      11.79145000
H       15.31000000     -12.50631000      14.02435000
O       14.74285000     -12.00593000      14.65009000
H       14.00988000     -12.64263000      14.82769000
