6
Properties=species:S:1:pos:R:3 frame=T 2=T |=T Written=T by=T MDAnalysis=T XYZWriter=T (release=T 2.4.3)=T pbc="F F F"
H       14.12338000     -16.90412000     -15.77753000
O       13.32618000     -17.37035000     -16.06258000
H       12.59313000     -16.80518000     -15.75108000
H       10.41395000     -17.39867000     -16.02966000
O       10.81493000     -16.86669000     -15.31357000
H       10.90754000     -17.51746000     -14.60655000
