6
Properties=species:S:1:pos:R:3 frame=T 30=T |=T Written=T by=T MDAnalysis=T XYZWriter=T (release=T 2.4.3)=T pbc="F F F"
H       14.71339000     -14.19487000       1.12581000
O       14.07601000     -13.70449000       0.63526000
H       14.56809000     -12.98320000       0.22324000
H       15.13761000     -15.09604000      -2.53510000
O       15.46788000     -15.23869000      -1.63116000
H       14.87545000     -14.61882000      -1.13468000
