6
Properties=species:S:1:pos:R:3 frame=T 22=T |=T Written=T by=T MDAnalysis=T XYZWriter=T (release=T 2.4.3)=T pbc="F F F"
H      -15.17502000      16.52374000      16.59399000
O      -15.32170000      16.49025000      17.57480000
H      -15.73425000      15.62344000      17.71892000
H      -12.17317000      16.44387000      18.23130000
O      -12.87273000      15.80766000      18.43822000
H      -13.70669000      16.24265000      18.18022000
