6
Properties=species:S:1:pos:R:3 frame=T 48=T |=T Written=T by=T MDAnalysis=T XYZWriter=T (release=T 2.4.3)=T pbc="F F F"
H       16.70514000     -14.59778000      -8.31903000
O       16.45105000     -13.98112000      -8.99680000
H       15.73365000     -13.53731000      -8.55701000
H       13.94103000     -11.68125000      -7.74723000
O       14.55095000     -12.43158000      -7.50382000
H       15.24552000     -12.04145000      -6.94222000
