6
Properties=species:S:1:pos:R:3 frame=T 17=T |=T Written=T by=T MDAnalysis=T XYZWriter=T (release=T 2.4.3)=T pbc="F F F"
H      -15.22748000      15.40682000       9.17431000
O      -15.81254000      14.78843000       8.71185000
H      -15.40418000      13.94209000       8.65208000
H      -14.45127000      12.11582000       9.58941000
O      -14.71687000      12.16540000       8.66533000
H      -13.87699000      12.34568000       8.20511000
