6
Properties=species:S:1:pos:R:3 frame=T 44=T |=T Written=T by=T MDAnalysis=T XYZWriter=T (release=T 2.4.3)=T pbc="F F F"
H       11.65472000      16.62674000      -6.30521000
O       11.40367000      17.46272000      -6.73129000
H       11.97400000      18.12592000      -6.31409000
H       12.25536000      14.86050000      -8.88945000
O       12.80527000      15.38571000      -8.26885000
H       12.41068000      16.28098000      -8.32042000
