6
Properties=species:S:1:pos:R:3 frame=T 47=T |=T Written=T by=T MDAnalysis=T XYZWriter=T (release=T 2.4.3)=T pbc="F F F"
H      -17.42331000       0.83987000      16.60530000
O      -17.14461000      -0.04221000      16.36987000
H      -16.23111000      -0.05981000      16.69510000
H      -17.81869000      -0.22651000      18.30887000
O      -17.93782000       0.04785000      19.23969000
H      -18.88918000      -0.16083000      19.40314000
