6
Properties=species:S:1:pos:R:3 frame=T 20=T |=T Written=T by=T MDAnalysis=T XYZWriter=T (release=T 2.4.3)=T pbc="F F F"
H       -3.91512000     -11.86824000     -17.31977000
O       -3.50379000     -11.72418000     -16.45218000
H       -3.83454000     -12.45442000     -15.91963000
H       -4.41149000     -13.47362000     -14.35392000
O       -5.24848000     -13.08850000     -14.65123000
H       -5.39883000     -12.31939000     -14.06277000
