6
Properties=species:S:1:pos:R:3 frame=T 27=T |=T Written=T by=T MDAnalysis=T XYZWriter=T (release=T 2.4.3)=T pbc="F F F"
H        9.86792000       2.21862000       9.06408000
O       10.40803000       1.52197000       9.50225000
H        9.76216000       0.79336000       9.64125000
H       11.66814000       3.56738000      11.66210000
O       11.54177000       2.61524000      11.55450000
H       11.36394000       2.47671000      10.63365000
