6
Properties=species:S:1:pos:R:3 frame=T 44=T |=T Written=T by=T MDAnalysis=T XYZWriter=T (release=T 2.4.3)=T pbc="F F F"
H       12.97126000      -6.45564000      10.51013000
O       13.10497000      -6.36529000      11.46719000
H       13.67678000      -5.61671000      11.59543000
H       15.62608000      -4.94247000      10.96556000
O       15.22877000      -4.78295000      11.81862000
H       15.23521000      -3.79576000      11.94239000
