6
Properties=species:S:1:pos:R:3 frame=T 19=T |=T Written=T by=T MDAnalysis=T XYZWriter=T (release=T 2.4.3)=T pbc="F F F"
H       -9.82667000      -5.23197000     -17.86541000
O       -9.31539000      -6.05138000     -17.96528000
H       -9.07367000      -6.33047000     -17.07858000
H       -7.14152000      -7.08751000     -15.65140000
O       -7.71937000      -6.34845000     -15.89230000
H       -7.08654000      -5.67591000     -16.19440000
