6
Properties=species:S:1:pos:R:3 frame=T 25=T |=T Written=T by=T MDAnalysis=T XYZWriter=T (release=T 2.4.3)=T pbc="F F F"
H      -18.31998000      -0.07569000     -13.12751000
O      -19.12353000       0.19876000     -12.69007000
H      -18.80546000       0.74265000     -11.95691000
H      -17.87222000      -1.90537000     -14.57266000
O      -17.44035000      -1.08807000     -14.24883000
H      -17.46430000      -0.50317000     -15.03059000
