6
Properties=species:S:1:pos:R:3 frame=T 50=T |=T Written=T by=T MDAnalysis=T XYZWriter=T (release=T 2.4.3)=T pbc="F F F"
H        8.09497000      -5.62635000      -5.90594000
O        8.69423000      -5.13119000      -6.46777000
H        8.11348000      -4.88180000      -7.20660000
H        6.56195000      -6.96829000      -5.10602000
O        6.81584000      -6.07540000      -4.83018000
H        7.16523000      -6.18965000      -3.93649000
