6
Properties=species:S:1:pos:R:3 frame=T 20=T |=T Written=T by=T MDAnalysis=T XYZWriter=T (release=T 2.4.3)=T pbc="F F F"
H      -14.54953000      -0.36271000     -14.90418000
O      -15.19453000      -0.09240000     -14.25921000
H      -14.69169000      -0.21141000     -13.44599000
H      -12.81869000      -0.06113000     -16.59678000
O      -12.90205000      -0.59543000     -15.80395000
H      -12.04655000      -0.48785000     -15.35791000
