6
Properties=species:S:1:pos:R:3 frame=T 13=T |=T Written=T by=T MDAnalysis=T XYZWriter=T (release=T 2.4.3)=T pbc="F F F"
H        8.46659000       5.89282000     -12.01347000
O        8.33468000       5.30480000     -11.27257000
H        8.77107000       4.52877000     -11.56743000
H        7.68328000       6.13968000      -8.47992000
O        6.97023000       5.96353000      -9.09106000
H        7.42001000       5.58636000      -9.84718000
