6
Properties=species:S:1:pos:R:3 frame=T 34=T |=T Written=T by=T MDAnalysis=T XYZWriter=T (release=T 2.4.3)=T pbc="F F F"
H        0.07492000       1.97664000      -3.49213000
O        0.88011000       1.90439000      -2.96659000
H        1.54725000       1.83492000      -3.66013000
H        3.70550000       0.95648000      -4.31880000
O        2.82169000       1.11046000      -4.65482000
H        2.41966000       0.21346000      -4.67579000
