6
Properties=species:S:1:pos:R:3 frame=T 14=T |=T Written=T by=T MDAnalysis=T XYZWriter=T (release=T 2.4.3)=T pbc="F F F"
H       -1.85164000     -17.06801000     -11.35410000
O       -2.30468000     -17.04807000     -12.22081000
H       -1.56572000     -16.95253000     -12.88908000
H       -2.23139000     -17.77432000     -14.32033000
O       -2.85034000     -18.51561000     -14.55474000
H       -3.55617000     -18.04937000     -15.04009000
