6
Properties=species:S:1:pos:R:3 frame=T 13=T |=T Written=T by=T MDAnalysis=T XYZWriter=T (release=T 2.4.3)=T pbc="F F F"
H      -11.35352000       5.11114000      10.93904000
O      -10.98752000       5.09340000      11.83141000
H      -10.86502000       4.15700000      12.03652000
H      -11.31575000       6.75786000      12.10250000
O      -11.65932000       7.66911000      12.20552000
H      -11.07499000       8.26290000      11.67626000
