6
Properties=species:S:1:pos:R:3 frame=T 14=T |=T Written=T by=T MDAnalysis=T XYZWriter=T (release=T 2.4.3)=T pbc="F F F"
H      -10.07576000      -4.47462000     -14.58571000
O      -10.74434000      -3.91442000     -14.19984000
H      -10.26669000      -3.29555000     -13.65856000
H       -8.58969000      -1.57077000     -13.39637000
O       -9.24502000      -2.10170000     -12.96405000
H       -9.36081000      -1.65552000     -12.12323000
