6
Properties=species:S:1:pos:R:3 frame=T 25=T |=T Written=T by=T MDAnalysis=T XYZWriter=T (release=T 2.4.3)=T pbc="F F F"
H        2.12896000      -0.82281000       8.21379000
O        1.40067000      -0.74654000       7.57862000
H        1.49494000      -1.57538000       7.12039000
H        2.91950000      -2.48152000       5.40301000
O        2.27070000      -2.85980000       6.02677000
H        1.48396000      -2.98069000       5.48654000
