6
Properties=species:S:1:pos:R:3 frame=T 48=T |=T Written=T by=T MDAnalysis=T XYZWriter=T (release=T 2.4.3)=T pbc="F F F"
H      -18.10286000     -17.40389000      -4.43307000
O      -18.94448000     -17.27437000      -3.96278000
H      -19.43544000     -18.05061000      -4.25008000
H      -18.46967000     -18.65919000      -2.33091000
O      -17.96019000     -18.27142000      -1.59342000
H      -18.29144000     -18.70290000      -0.78703000
