6
Properties=species:S:1:pos:R:3 frame=T 21=T |=T Written=T by=T MDAnalysis=T XYZWriter=T (release=T 2.4.3)=T pbc="F F F"
H       16.83182000      -8.88366000      -6.16363000
O       16.86555000      -8.74494000      -7.10696000
H       17.36576000      -7.87923000      -7.12463000
H       17.50204000      -5.61944000      -7.22644000
O       18.16402000      -6.15402000      -7.68463000
H       18.96501000      -6.07111000      -7.23519000
