6
Properties=species:S:1:pos:R:3 frame=T 53=T |=T Written=T by=T MDAnalysis=T XYZWriter=T (release=T 2.4.3)=T pbc="F F F"
H       17.05397000      -0.64170000     -13.93771000
O       16.09777000      -0.71549000     -13.84275000
H       15.86834000      -0.33711000     -12.96679000
H       18.08193000      -3.65462000     -13.75171000
O       17.39272000      -3.37008000     -13.15630000
H       16.90196000      -2.70068000     -13.65200000
