6
Properties=species:S:1:pos:R:3 frame=T 29=T |=T Written=T by=T MDAnalysis=T XYZWriter=T (release=T 2.4.3)=T pbc="F F F"
H      -16.24669000       2.34303000     -10.94590000
O      -16.92220000       2.20890000     -10.28103000
H      -17.35444000       1.38089000     -10.60976000
H      -14.38493000       1.91595000     -11.08762000
O      -14.38686000       2.76561000     -11.54998000
H      -13.90238000       3.35927000     -10.94807000
