6
Properties=species:S:1:pos:R:3 frame=T 33=T |=T Written=T by=T MDAnalysis=T XYZWriter=T (release=T 2.4.3)=T pbc="F F F"
H       11.62931000      -7.18696000      -7.56596000
O       11.72988000      -6.31472000      -8.01067000
H       12.01229000      -5.67959000      -7.33738000
H       13.78453000      -6.00143000     -10.42690000
O       13.14669000      -5.38020000      -9.97723000
H       12.75426000      -5.93255000      -9.25013000
