6
Properties=species:S:1:pos:R:3 frame=T 45=T |=T Written=T by=T MDAnalysis=T XYZWriter=T (release=T 2.4.3)=T pbc="F F F"
H        6.66939000      -0.69504000     -12.92452000
O        5.84401000      -1.21483000     -12.81012000
H        5.20695000      -0.50265000     -12.67170000
H        3.42825000       1.11411000     -11.21297000
O        4.04387000       0.76967000     -11.86756000
H        4.56308000       1.52063000     -12.15635000
