6
Properties=species:S:1:pos:R:3 frame=T 25=T |=T Written=T by=T MDAnalysis=T XYZWriter=T (release=T 2.4.3)=T pbc="F F F"
H      -12.99439000     -10.55916000      10.75272000
O      -12.95183000     -10.92903000       9.87344000
H      -13.68420000     -11.57682000       9.87936000
H      -12.46785000     -10.10029000      13.03738000
O      -13.12144000     -10.59183000      12.51835000
H      -13.78787000     -10.82509000      13.14605000
