6
Properties=species:S:1:pos:R:3 frame=T 29=T |=T Written=T by=T MDAnalysis=T XYZWriter=T (release=T 2.4.3)=T pbc="F F F"
H      -12.18421000      13.71671000     -15.63905000
O      -12.47411000      13.47368000     -16.54199000
H      -13.30435000      13.97224000     -16.60154000
H      -15.29358000      15.13299000     -16.78521000
O      -14.55003000      14.97127000     -17.35609000
H      -14.47239000      15.84157000     -17.71353000
