6
Properties=species:S:1:pos:R:3 frame=T 11=T |=T Written=T by=T MDAnalysis=T XYZWriter=T (release=T 2.4.3)=T pbc="F F F"
H      -18.75901000      -9.44112000      -1.74987000
O      -17.90521000      -9.65524000      -2.14469000
H      -18.13070000     -10.12403000      -2.98641000
H      -16.88341000      -6.59516000      -2.03257000
O      -17.69898000      -6.95086000      -2.40382000
H      -17.69024000      -7.89850000      -2.18323000
