6
Properties=species:S:1:pos:R:3 frame=T 5=T |=T Written=T by=T MDAnalysis=T XYZWriter=T (release=T 2.4.3)=T pbc="F F F"
H       -6.15858000       0.95231000       1.00741000
O       -5.42852000       0.78348000       1.59445000
H       -5.79991000       0.08928000       2.11804000
H       -7.58662000       3.11529000       0.35357000
O       -7.03675000       2.42577000      -0.01543000
H       -7.67298000       1.74517000      -0.19325000
