6
Properties=species:S:1:pos:R:3 frame=T 46=T |=T Written=T by=T MDAnalysis=T XYZWriter=T (release=T 2.4.3)=T pbc="F F F"
H       11.23624000      15.91724000       6.20335000
O       10.71725000      15.88491000       5.37961000
H       10.00608000      15.28071000       5.57308000
H        7.67121000      15.12445000       6.03334000
O        8.32354000      14.59638000       5.51361000
H        7.94767000      14.56582000       4.61426000
