6
Properties=species:S:1:pos:R:3 frame=T 36=T |=T Written=T by=T MDAnalysis=T XYZWriter=T (release=T 2.4.3)=T pbc="F F F"
H        8.45187000      -1.98599000       6.18483000
O        8.15951000      -2.91277000       6.16756000
H        7.76770000      -3.09909000       7.03378000
H        9.97920000      -5.27107000       5.23590000
O       10.40349000      -4.75519000       5.95446000
H        9.73955000      -4.03752000       6.10790000
