6
Properties=species:S:1:pos:R:3 frame=T 25=T |=T Written=T by=T MDAnalysis=T XYZWriter=T (release=T 2.4.3)=T pbc="F F F"
H       17.39569000     -14.45885000      14.26236000
O       17.34504000     -13.70795000      14.86440000
H       16.40292000     -13.72165000      15.10568000
H       19.09889000     -13.65384000      17.26632000
O       18.29000000     -14.09696000      17.54609000
H       17.64237000     -13.96012000      16.85347000
