6
Properties=species:S:1:pos:R:3 frame=T 48=T |=T Written=T by=T MDAnalysis=T XYZWriter=T (release=T 2.4.3)=T pbc="F F F"
H       -1.33024000      15.63727000     -14.89209000
O       -2.08805000      15.51011000     -15.45716000
H       -1.88416000      16.04278000     -16.23155000
H       -3.29726000      16.84947000     -14.96115000
O       -4.05176000      17.18484000     -14.42167000
H       -3.70778000      18.08476000     -14.18284000
