6
Properties=species:S:1:pos:R:3 frame=T 18=T |=T Written=T by=T MDAnalysis=T XYZWriter=T (release=T 2.4.3)=T pbc="F F F"
H      -10.24938000      17.00434000     -14.24360000
O      -10.87308000      16.69366000     -14.91011000
H      -11.65948000      16.51546000     -14.39496000
H       -9.69117000      17.55222000     -11.89098000
O       -9.46385000      17.91778000     -12.73654000
H       -8.49630000      17.83558000     -12.75888000
