6
Properties=species:S:1:pos:R:3 frame=T 24=T |=T Written=T by=T MDAnalysis=T XYZWriter=T (release=T 2.4.3)=T pbc="F F F"
H      -17.02199000     -12.53159000       9.61784000
O      -17.19120000     -12.93112000       8.74210000
H      -16.88327000     -13.84080000       8.88466000
H      -17.78926000     -12.04943000      11.84418000
O      -17.14415000     -11.84877000      11.15844000
H      -16.29034000     -12.02478000      11.57858000
