6
Properties=species:S:1:pos:R:3 frame=T 35=T |=T Written=T by=T MDAnalysis=T XYZWriter=T (release=T 2.4.3)=T pbc="F F F"
H       -8.13005000       1.63567000       9.52443000
O       -8.41403000       0.93526000       8.96137000
H       -7.70469000       0.87202000       8.28033000
H       -6.47568000       2.11463000       7.51748000
O       -6.30038000       1.18831000       7.32054000
H       -5.71562000       0.96518000       8.05050000
