6
Properties=species:S:1:pos:R:3 frame=T 20=T |=T Written=T by=T MDAnalysis=T XYZWriter=T (release=T 2.4.3)=T pbc="F F F"
H      -16.49680000       6.40257000       8.29718000
O      -15.75410000       6.58585000       8.87875000
H      -15.44123000       5.71446000       9.15209000
H      -14.50430000       5.03507000       6.82113000
O      -14.63394000       5.88708000       6.41789000
H      -15.03671000       6.40503000       7.15521000
