6
Properties=species:S:1:pos:R:3 frame=T 44=T |=T Written=T by=T MDAnalysis=T XYZWriter=T (release=T 2.4.3)=T pbc="F F F"
H      -17.73765000     -17.57341000       8.62907000
O      -18.33163000     -18.16412000       9.13292000
H      -17.78494000     -18.55666000       9.83157000
H      -16.39784000     -17.87420000      10.84388000
O      -16.66882000     -18.73227000      11.19619000
H      -16.12688000     -19.29158000      10.59396000
