6
Properties=species:S:1:pos:R:3 frame=T 45=T |=T Written=T by=T MDAnalysis=T XYZWriter=T (release=T 2.4.3)=T pbc="F F F"
H       -7.80916000      18.05786000     -13.37965000
O       -7.22181000      17.41685000     -12.93116000
H       -7.85052000      16.91569000     -12.40243000
H       -9.84988000      17.10902000     -14.03286000
O       -9.74075000      17.91135000     -13.47539000
H      -10.23870000      17.70196000     -12.69098000
