6
Properties=species:S:1:pos:R:3 frame=T 0=T |=T Written=T by=T MDAnalysis=T XYZWriter=T (release=T 2.4.3)=T pbc="F F F"
H      -14.43836000       7.45165000      -2.84913000
O      -14.85217000       6.73048000      -2.32627000
H      -14.32130000       6.75881000      -1.54676000
H      -17.69055000       8.00005000      -1.36388000
O      -16.98181000       7.42242000      -0.95172000
H      -16.56001000       7.02522000      -1.73365000
