6
Properties=species:S:1:pos:R:3 frame=T 38=T |=T Written=T by=T MDAnalysis=T XYZWriter=T (release=T 2.4.3)=T pbc="F F F"
H       19.35749000     -10.25743000       4.80761000
O       18.42394000     -10.38260000       5.03621000
H       18.34744000     -11.34262000       5.19392000
H       18.24199000      -8.60146000       7.67893000
O       18.95061000      -8.33653000       7.08176000
H       18.75310000      -8.86809000       6.31664000
