6
Properties=species:S:1:pos:R:3 frame=T 53=T |=T Written=T by=T MDAnalysis=T XYZWriter=T (release=T 2.4.3)=T pbc="F F F"
H       -7.02140000       1.34169000       4.92954000
O       -7.64096000       2.09114000       4.89767000
H       -8.27668000       1.79998000       4.24911000
H       -7.71182000       3.74634000       4.88806000
O       -7.61839000       4.71753000       4.90832000
H       -8.51241000       5.01944000       5.15389000
