6
Properties=species:S:1:pos:R:3 frame=T 29=T |=T Written=T by=T MDAnalysis=T XYZWriter=T (release=T 2.4.3)=T pbc="F F F"
H       -3.02678000     -17.65606000      19.42552000
O       -3.03855000     -17.77619000      18.46353000
H       -3.95547000     -17.99969000      18.29253000
H       -3.36308000     -15.87287000      18.59286000
O       -3.58190000     -14.94419000      18.39111000
H       -2.74800000     -14.42825000      18.44159000
