6
Properties=species:S:1:pos:R:3 frame=T 34=T |=T Written=T by=T MDAnalysis=T XYZWriter=T (release=T 2.4.3)=T pbc="F F F"
H      -13.82827000      12.35874000     -15.14161000
O      -13.27367000      12.12818000     -14.41266000
H      -13.54782000      12.68184000     -13.67922000
H      -12.36661000      10.93128000     -15.69589000
O      -12.43222000      10.69120000     -16.62825000
H      -12.27283000      11.50569000     -17.14037000
