6
Properties=species:S:1:pos:R:3 frame=T 13=T |=T Written=T by=T MDAnalysis=T XYZWriter=T (release=T 2.4.3)=T pbc="F F F"
H       -9.78694000      -8.20333000       8.63340000
O      -10.21434000      -8.59655000       7.85535000
H       -9.63419000      -8.30629000       7.14695000
H      -12.42621000      -6.38856000       8.99748000
O      -11.90760000      -6.29115000       8.20884000
H      -11.32507000      -7.04422000       8.15075000
