6
Properties=species:S:1:pos:R:3 frame=T 11=T |=T Written=T by=T MDAnalysis=T XYZWriter=T (release=T 2.4.3)=T pbc="F F F"
H       17.48141000      14.78671000       0.24198000
O       17.41631000      15.73903000       0.14854000
H       18.32094000      16.05499000      -0.06828000
H       17.04234000      14.84725000      -1.71786000
O       16.45572000      14.67928000      -2.45783000
H       17.10782000      14.42562000      -3.12942000
