6
Properties=species:S:1:pos:R:3 frame=T 52=T |=T Written=T by=T MDAnalysis=T XYZWriter=T (release=T 2.4.3)=T pbc="F F F"
H        6.69775000      -4.70157000     -12.41187000
O        6.64125000      -4.84729000     -11.43910000
H        6.25214000      -4.00115000     -11.16107000
H        4.63337000      -6.11337000      -9.29869000
O        5.58644000      -6.13828000      -9.38111000
H        5.76537000      -5.68139000     -10.20028000
