6
Properties=species:S:1:pos:R:3 frame=T 30=T |=T Written=T by=T MDAnalysis=T XYZWriter=T (release=T 2.4.3)=T pbc="F F F"
H        0.33281000       2.29753000      -7.52182000
O        0.74909000       3.07053000      -7.90819000
H        1.66424000       3.03838000      -7.53059000
H       -0.87422000       5.38800000      -6.47700000
O       -0.72852000       5.35083000      -7.45210000
H        0.02776000       4.76370000      -7.45749000
