6
Properties=species:S:1:pos:R:3 frame=T 9=T |=T Written=T by=T MDAnalysis=T XYZWriter=T (release=T 2.4.3)=T pbc="F F F"
H        4.60334000      17.63241000      -0.12717000
O        3.93977000      17.02041000       0.22879000
H        4.29355000      16.14972000       0.03990000
H        5.03814000      15.35715000       3.06286000
O        5.60525000      15.80367000       2.42449000
H        5.18454000      15.65178000       1.56803000
