6
Properties=species:S:1:pos:R:3 frame=T 16=T |=T Written=T by=T MDAnalysis=T XYZWriter=T (release=T 2.4.3)=T pbc="F F F"
H      -10.73867000      19.22159000      12.26355000
O      -11.65084000      18.88313000      12.35151000
H      -11.46895000      18.03442000      12.81717000
H       -9.74514000      16.78860000      13.35136000
O      -10.00162000      17.22470000      14.18770000
H       -9.77943000      16.54870000      14.83218000
