6
Properties=species:S:1:pos:R:3 frame=T 46=T |=T Written=T by=T MDAnalysis=T XYZWriter=T (release=T 2.4.3)=T pbc="F F F"
H        1.26951000      12.70453000       5.69443000
O        1.22242000      13.62282000       5.32872000
H        1.74974000      13.50825000       4.52322000
H        1.28213000      11.04661000       7.56233000
O        1.73074000      11.55222000       6.88146000
H        1.95521000      10.87163000       6.22263000
