6
Properties=species:S:1:pos:R:3 frame=T 41=T |=T Written=T by=T MDAnalysis=T XYZWriter=T (release=T 2.4.3)=T pbc="F F F"
H      -17.86876000      16.52880000      -6.17132000
O      -18.13939000      15.79292000      -6.73507000
H      -17.80283000      15.99324000      -7.63216000
H      -16.74679000      16.72707000      -3.77442000
O      -17.61694000      16.71608000      -4.19054000
H      -18.00937000      15.82343000      -4.19130000
