6
Properties=species:S:1:pos:R:3 frame=T 20=T |=T Written=T by=T MDAnalysis=T XYZWriter=T (release=T 2.4.3)=T pbc="F F F"
H        9.23215000     -17.27245000      -1.23160000
O        8.70528000     -16.47622000      -1.29724000
H        8.04031000     -16.51287000      -0.59543000
H        6.02177000     -16.01392000      -3.20159000
O        6.52666000     -15.64906000      -2.50486000
H        7.38660000     -16.07299000      -2.57991000
