6
Properties=species:S:1:pos:R:3 frame=T 21=T |=T Written=T by=T MDAnalysis=T XYZWriter=T (release=T 2.4.3)=T pbc="F F F"
H      -15.38523000      13.64978000     -13.29219000
O      -14.91640000      14.43014000     -13.08324000
H      -15.42309000      15.09035000     -13.57871000
H      -14.11101000      14.83651000     -11.54741000
O      -13.83852000      15.24841000     -10.68808000
H      -14.69319000      15.30854000     -10.19566000
