6
Properties=species:S:1:pos:R:3 frame=T 27=T |=T Written=T by=T MDAnalysis=T XYZWriter=T (release=T 2.4.3)=T pbc="F F F"
H       12.43358000      -0.96326000      12.02824000
O       12.02048000      -1.78286000      11.68695000
H       11.31512000      -1.95190000      12.34387000
H        9.36037000      -2.44594000      11.30168000
O        9.57127000      -2.87257000      12.15658000
H        9.62706000      -3.81666000      11.87020000
