6
Properties=species:S:1:pos:R:3 frame=T 39=T |=T Written=T by=T MDAnalysis=T XYZWriter=T (release=T 2.4.3)=T pbc="F F F"
H       -5.30311000      12.92143000      17.03438000
O       -5.18114000      13.82972000      17.38064000
H       -4.98189000      13.66904000      18.29797000
H       -6.61534000      11.68216000      15.49225000
O       -5.71355000      11.57648000      15.78985000
H       -5.20232000      11.79563000      14.98515000
