6
Properties=species:S:1:pos:R:3 frame=T 20=T |=T Written=T by=T MDAnalysis=T XYZWriter=T (release=T 2.4.3)=T pbc="F F F"
H       14.48456000       0.12265000      -0.18211000
O       13.93515000       0.71876000      -0.69449000
H       14.36956000       1.59326000      -0.61725000
H       12.62664000       1.38581000       0.81419000
O       12.37149000       1.91412000       1.56470000
H       11.89635000       2.62063000       1.16326000
