6
Properties=species:S:1:pos:R:3 frame=T 1=T |=T Written=T by=T MDAnalysis=T XYZWriter=T (release=T 2.4.3)=T pbc="F F F"
H        8.53396000      -4.62358000     -14.68780000
O        7.60244000      -4.81498000     -14.67169000
H        7.12123000      -4.23578000     -15.29394000
H       10.89528000      -4.72464000     -14.94965000
O       10.18621000      -4.82849000     -15.58882000
H        9.99102000      -5.75988000     -15.64002000
