6
Properties=species:S:1:pos:R:3 frame=T 24=T |=T Written=T by=T MDAnalysis=T XYZWriter=T (release=T 2.4.3)=T pbc="F F F"
H      -15.60964000       3.61732000      -8.14687000
O      -15.32034000       2.69877000      -8.11841000
H      -16.11923000       2.21368000      -8.29571000
H      -13.78242000       0.23975000      -9.51447000
O      -13.43727000       1.13497000      -9.36644000
H      -14.05069000       1.52728000      -8.76137000
