6
Properties=species:S:1:pos:R:3 frame=T 42=T |=T Written=T by=T MDAnalysis=T XYZWriter=T (release=T 2.4.3)=T pbc="F F F"
H        8.43096000       2.95250000      -2.85439000
O        7.77812000       3.31141000      -3.46776000
H        8.33608000       3.83640000      -4.09175000
H        7.22986000       1.54583000      -3.90768000
O        7.03105000       0.67116000      -3.57764000
H        7.80960000       0.14044000      -3.73931000
