6
Properties=species:S:1:pos:R:3 frame=T 0=T |=T Written=T by=T MDAnalysis=T XYZWriter=T (release=T 2.4.3)=T pbc="F F F"
H        6.09420000       1.24974000     -12.54574000
O        6.96080000       1.66308000     -12.62179000
H        6.96586000       2.31645000     -11.92008000
H        7.35081000       2.06257000     -15.74201000
O        7.98536000       2.31346000     -15.05519000
H        7.59326000       1.90137000     -14.29146000
