6
Properties=species:S:1:pos:R:3 frame=T 11=T |=T Written=T by=T MDAnalysis=T XYZWriter=T (release=T 2.4.3)=T pbc="F F F"
H      -13.37914000       7.13628000      13.61684000
O      -14.22099000       6.92713000      14.05243000
H      -14.14728000       7.47899000      14.83986000
H      -13.11450000       9.23328000      15.60916000
O      -13.88062000       8.89428000      16.08811000
H      -14.47304000       9.64376000      16.19348000
