6
Properties=species:S:1:pos:R:3 frame=T 7=T |=T Written=T by=T MDAnalysis=T XYZWriter=T (release=T 2.4.3)=T pbc="F F F"
H        8.95058000       5.82574000      -8.71340000
O        8.12254000       6.00030000      -8.25708000
H        8.35110000       6.65151000      -7.56404000
H        8.76367000       8.82780000      -7.25965000
O        8.03743000       8.24551000      -6.94878000
H        7.82978000       8.55801000      -6.05218000
