6
Properties=species:S:1:pos:R:3 frame=T 28=T |=T Written=T by=T MDAnalysis=T XYZWriter=T (release=T 2.4.3)=T pbc="F F F"
H       12.97071000      14.37093000     -10.87708000
O       12.50277000      13.54923000     -11.07700000
H       13.19871000      12.98878000     -11.40120000
H       13.23121000      16.82644000     -11.18591000
O       12.57645000      16.34932000     -10.65569000
H       13.12910000      15.97460000      -9.93712000
