6
Properties=species:S:1:pos:R:3 frame=T 2=T |=T Written=T by=T MDAnalysis=T XYZWriter=T (release=T 2.4.3)=T pbc="F F F"
H      -12.21374000      15.02549000      -9.88185000
O      -11.66544000      15.59691000      -9.34965000
H      -10.81806000      15.63598000      -9.79371000
H       -9.79951000      16.87195000     -11.37386000
O       -9.67721000      15.96602000     -11.02654000
H       -8.72712000      15.80867000     -11.05444000
