6
Properties=species:S:1:pos:R:3 frame=T 6=T |=T Written=T by=T MDAnalysis=T XYZWriter=T (release=T 2.4.3)=T pbc="F F F"
H       -0.69291000     -13.71403000      -2.17431000
O        0.20747000     -13.59950000      -1.84874000
H        0.62269000     -14.47012000      -1.93956000
H       -0.12283000     -12.38060000      -3.51353000
O        0.13011000     -11.58792000      -4.02293000
H        1.05911000     -11.45447000      -3.76394000
