6
Properties=species:S:1:pos:R:3 frame=T 13=T |=T Written=T by=T MDAnalysis=T XYZWriter=T (release=T 2.4.3)=T pbc="F F F"
H       -7.74673000     -14.39028000      16.54909000
O       -8.26218000     -15.16192000      16.89497000
H       -7.60597000     -15.88066000      17.04240000
H       -5.89060000     -16.81738000      17.44183000
O       -6.69123000     -17.30491000      17.70596000
H       -6.74278000     -18.03319000      17.07310000
