6
Properties=species:S:1:pos:R:3 frame=T 32=T |=T Written=T by=T MDAnalysis=T XYZWriter=T (release=T 2.4.3)=T pbc="F F F"
H       -0.44745000      13.61711000     -12.70343000
O        0.49455000      13.86455000     -12.76433000
H        0.85224000      13.34541000     -13.48262000
H        2.40975000      12.35732000     -15.40412000
O        1.86840000      12.37598000     -14.58790000
H        1.11173000      11.85257000     -14.82520000
