6
Properties=species:S:1:pos:R:3 frame=T 16=T |=T Written=T by=T MDAnalysis=T XYZWriter=T (release=T 2.4.3)=T pbc="F F F"
H       -9.62697000      12.12269000      16.16917000
O      -10.18617000      11.38639000      16.45276000
H      -10.39744000      10.98723000      15.63046000
H       -9.79304000       9.85028000      17.36234000
O       -9.84671000       9.10615000      17.97609000
H       -8.94557000       8.81267000      18.05371000
