6
Properties=species:S:1:pos:R:3 frame=T 14=T |=T Written=T by=T MDAnalysis=T XYZWriter=T (release=T 2.4.3)=T pbc="F F F"
H       14.45632000     -18.55883000     -16.26832000
O       13.67620000     -18.86963000     -16.78877000
H       12.89649000     -18.75173000     -16.22358000
H       16.29736000     -17.84744000     -17.22383000
O       16.17686000     -18.02009000     -16.28469000
H       16.45795000     -17.17383000     -15.90159000
