6
Properties=species:S:1:pos:R:3 frame=T 16=T |=T Written=T by=T MDAnalysis=T XYZWriter=T (release=T 2.4.3)=T pbc="F F F"
H        4.02998000      13.77717000      10.62242000
O        4.42069000      13.18214000      11.27859000
H        3.71325000      13.09003000      11.91981000
H        4.40236000      16.59865000      10.52884000
O        3.86339000      15.83895000      10.30358000
H        3.20707000      15.81064000      10.97932000
