6
Properties=species:S:1:pos:R:3 frame=T 40=T |=T Written=T by=T MDAnalysis=T XYZWriter=T (release=T 2.4.3)=T pbc="F F F"
H       -3.27009000     -10.16330000       2.20531000
O       -2.97239000     -10.11671000       3.09852000
H       -2.93373000     -11.06111000       3.27143000
H       -3.75628000     -11.57007000       0.54782000
O       -3.53314000     -10.65317000       0.48772000
H       -4.12767000     -10.30737000      -0.19993000
