6
Properties=species:S:1:pos:R:3 frame=T 31=T |=T Written=T by=T MDAnalysis=T XYZWriter=T (release=T 2.4.3)=T pbc="F F F"
H       18.41824000      16.41809000       5.05340000
O       18.99790000      16.76686000       4.35037000
H       19.35185000      17.58095000       4.69815000
H       18.61332000      14.47792000       5.50147000
O       18.19896000      14.98857000       6.23618000
H       17.33490000      14.50792000       6.28134000
