6
Properties=species:S:1:pos:R:3 frame=T 25=T |=T Written=T by=T MDAnalysis=T XYZWriter=T (release=T 2.4.3)=T pbc="F F F"
H      -17.13873000      14.03754000      17.65460000
O      -17.63142000      13.25364000      17.36726000
H      -18.23591000      13.60127000      16.68062000
H      -15.88366000      12.36448000      17.04706000
O      -15.48303000      11.67885000      16.51325000
H      -15.81231000      10.86542000      16.95741000
