6
Properties=species:S:1:pos:R:3 frame=T 47=T |=T Written=T by=T MDAnalysis=T XYZWriter=T (release=T 2.4.3)=T pbc="F F F"
H       -6.34596000       4.36667000      -2.78820000
O       -6.90120000       3.66491000      -2.51109000
H       -7.68039000       4.16819000      -2.21784000
H       -5.01206000       3.16384000      -1.59649000
O       -4.23910000       3.64724000      -1.32640000
H       -3.60787000       3.32220000      -1.97142000
