6
Properties=species:S:1:pos:R:3 frame=T 7=T |=T Written=T by=T MDAnalysis=T XYZWriter=T (release=T 2.4.3)=T pbc="F F F"
H       14.21591000      -3.49269000       3.66918000
O       14.27697000      -4.40917000       3.87347000
H       15.12589000      -4.67788000       3.51154000
H       11.64524000      -5.60420000       3.18944000
O       12.22116000      -5.99151000       3.84539000
H       12.99316000      -5.43420000       3.87027000
