6
Properties=species:S:1:pos:R:3 frame=T 54=T |=T Written=T by=T MDAnalysis=T XYZWriter=T (release=T 2.4.3)=T pbc="F F F"
H        7.25390000     -18.89585000     -11.93540000
O        7.44533000     -17.99406000     -11.58469000
H        8.14427000     -17.65020000     -12.19095000
H        9.60706000     -18.42163000      -8.89232000
O        8.80041000     -17.97736000      -9.24544000
H        8.68004000     -18.41392000     -10.08545000
