6
Properties=species:S:1:pos:R:3 frame=T 39=T |=T Written=T by=T MDAnalysis=T XYZWriter=T (release=T 2.4.3)=T pbc="F F F"
H      -18.42436000       8.39645000     -19.04816000
O      -18.79975000       7.55670000     -18.78836000
H      -18.07314000       7.20584000     -18.25615000
H      -14.99842000       7.71685000     -18.25718000
O      -15.95992000       7.56080000     -18.31729000
H      -16.02849000       6.63750000     -18.04707000
