6
Properties=species:S:1:pos:R:3 frame=T 20=T |=T Written=T by=T MDAnalysis=T XYZWriter=T (release=T 2.4.3)=T pbc="F F F"
H      -17.97898000      15.37190000     -16.93057000
O      -17.54605000      14.52165000     -16.63944000
H      -18.27587000      13.91049000     -16.54056000
H      -16.37777000      13.27133000     -16.93555000
O      -15.97142000      12.50611000     -17.36298000
H      -15.99340000      11.84039000     -16.67834000
