6
Properties=species:S:1:pos:R:3 frame=T 24=T |=T Written=T by=T MDAnalysis=T XYZWriter=T (release=T 2.4.3)=T pbc="F F F"
H       -5.49246000       6.24408000      -1.21128000
O       -5.89064000       5.51062000      -0.71235000
H       -6.55119000       5.94475000      -0.15566000
H       -5.07858000       7.04168000      -3.04907000
O       -4.34145000       7.09990000      -2.43350000
H       -3.59821000       6.70057000      -2.94343000
