6
Properties=species:S:1:pos:R:3 frame=T 39=T |=T Written=T by=T MDAnalysis=T XYZWriter=T (release=T 2.4.3)=T pbc="F F F"
H       -0.74914000      -5.74413000      12.24374000
O       -0.33832000      -5.64542000      13.11278000
H       -0.49495000      -4.70876000      13.28699000
H       -1.19440000      -2.61411000      12.77182000
O       -1.04370000      -3.33783000      12.15263000
H       -0.09395000      -3.45441000      12.12617000
