6
Properties=species:S:1:pos:R:3 frame=T 33=T |=T Written=T by=T MDAnalysis=T XYZWriter=T (release=T 2.4.3)=T pbc="F F F"
H        8.04143000     -10.33217000      -5.01141000
O        8.31573000     -11.19466000      -5.40759000
H        9.26505000     -11.22382000      -5.28159000
H        7.32297000     -12.35384000      -7.03020000
O        7.00995000     -13.27532000      -7.18965000
H        7.52068000     -13.59856000      -7.94022000
