6
Properties=species:S:1:pos:R:3 frame=T 26=T |=T Written=T by=T MDAnalysis=T XYZWriter=T (release=T 2.4.3)=T pbc="F F F"
H       -1.09581000      -2.61916000      18.60353000
O       -1.84642000      -3.21541000      18.76491000
H       -2.60085000      -2.78514000      18.34471000
H       -2.22204000      -4.07210000      16.47990000
O       -1.73151000      -4.86547000      16.64468000
H       -1.47437000      -4.74832000      17.54251000
