6
Properties=species:S:1:pos:R:3 frame=T 25=T |=T Written=T by=T MDAnalysis=T XYZWriter=T (release=T 2.4.3)=T pbc="F F F"
H       -2.86966000      14.83657000       5.76262000
O       -2.56321000      14.19347000       5.09759000
H       -3.26382000      13.54802000       5.08951000
H       -1.95885000      14.40376000       3.38192000
O       -1.33179000      14.80444000       2.72654000
H       -0.56218000      14.93737000       3.29425000
