6
Properties=species:S:1:pos:R:3 frame=T 46=T |=T Written=T by=T MDAnalysis=T XYZWriter=T (release=T 2.4.3)=T pbc="F F F"
H        0.14232000      10.77338000      -9.95962000
O       -0.03172000       9.81285000      -9.92935000
H       -0.96094000       9.63640000     -10.12932000
H        0.54724000       6.93137000      -9.36781000
O        1.26764000       7.59128000      -9.43861000
H        0.75198000       8.41252000      -9.49715000
