6
Properties=species:S:1:pos:R:3 frame=T 40=T |=T Written=T by=T MDAnalysis=T XYZWriter=T (release=T 2.4.3)=T pbc="F F F"
H       -9.09314000      -1.37871000       0.27311000
O       -9.78374000      -2.03082000       0.41038000
H       -9.58466000      -2.74854000      -0.20765000
H       -9.49797000      -3.38294000      -2.10331000
O       -9.60078000      -4.02056000      -1.38956000
H      -10.19659000      -4.71069000      -1.75187000
