6
Properties=species:S:1:pos:R:3 frame=T 10=T |=T Written=T by=T MDAnalysis=T XYZWriter=T (release=T 2.4.3)=T pbc="F F F"
H       -5.77917000      -0.90414000       8.73459000
O       -5.04231000      -1.40318000       9.08981000
H       -5.18479000      -1.29145000      10.05603000
H       -5.87460000       0.28811000       6.78068000
O       -6.65105000       0.26484000       7.36362000
H       -7.00893000      -0.62683000       7.16342000
