6
Properties=species:S:1:pos:R:3 frame=T 21=T |=T Written=T by=T MDAnalysis=T XYZWriter=T (release=T 2.4.3)=T pbc="F F F"
H      -14.93384000     -12.46049000       2.49177000
O      -14.99514000     -13.33757000       2.12150000
H      -15.80806000     -13.31113000       1.60331000
H      -17.78897000     -13.87767000       1.86265000
O      -17.85061000     -12.94665000       1.55287000
H      -18.56654000     -12.59474000       2.10194000
