6
Properties=species:S:1:pos:R:3 frame=T 20=T |=T Written=T by=T MDAnalysis=T XYZWriter=T (release=T 2.4.3)=T pbc="F F F"
H       15.23716000     -18.10655000      -2.39980000
O       16.04694000     -18.25107000      -2.89263000
H       16.40314000     -17.36068000      -3.06332000
H       18.07859000     -16.65126000      -4.73986000
O       17.36115000     -16.23770000      -4.25909000
H       16.57243000     -16.44725000      -4.75686000
