6
Properties=species:S:1:pos:R:3 frame=T 48=T |=T Written=T by=T MDAnalysis=T XYZWriter=T (release=T 2.4.3)=T pbc="F F F"
H       -0.14420000     -13.20760000       8.15809000
O       -0.77679000     -12.60422000       7.74813000
H       -1.44555000     -13.27575000       7.53694000
H       -2.62181000     -12.32847000      10.58138000
O       -2.06307000     -11.67473000      10.12285000
H       -1.52466000     -12.29072000       9.62824000
