6
Properties=species:S:1:pos:R:3 frame=T 2=T |=T Written=T by=T MDAnalysis=T XYZWriter=T (release=T 2.4.3)=T pbc="F F F"
H      -18.65813000       8.92001000       0.78660000
O      -18.04589000       8.14959000       0.74618000
H      -17.33848000       8.44311000       0.16149000
H      -15.12397000       7.88609000       0.32316000
O      -15.64427000       7.80072000      -0.48605000
H      -15.62688000       8.68428000      -0.82217000
