6
Properties=species:S:1:pos:R:3 frame=T 9=T |=T Written=T by=T MDAnalysis=T XYZWriter=T (release=T 2.4.3)=T pbc="F F F"
H       15.08426000      14.71804000       8.57664000
O       15.60733000      13.90971000       8.75017000
H       15.33020000      13.79476000       9.66665000
H       14.87975000      12.58408000      11.27388000
O       15.27683000      13.32887000      11.69394000
H       16.16180000      13.06854000      11.93911000
