6
Properties=species:S:1:pos:R:3 frame=T 54=T |=T Written=T by=T MDAnalysis=T XYZWriter=T (release=T 2.4.3)=T pbc="F F F"
H       17.62836000       6.18176000      11.85447000
O       16.84756000       6.25451000      12.42661000
H       16.31310000       6.97234000      12.04680000
H       17.58297000       5.92905000      13.98678000
O       18.25942000       5.97076000      14.68272000
H       18.49312000       5.06454000      14.90969000
