6
Properties=species:S:1:pos:R:3 frame=T 33=T |=T Written=T by=T MDAnalysis=T XYZWriter=T (release=T 2.4.3)=T pbc="F F F"
H       -8.61254000      10.14681000     -11.49270000
O       -9.54731000      10.21883000     -11.76137000
H       -9.98684000       9.49843000     -11.27594000
H      -11.07900000       9.27624000     -14.44707000
O      -10.16418000       9.32832000     -14.14894000
H      -10.19901000       9.86445000     -13.34071000
