6
Properties=species:S:1:pos:R:3 frame=T 54=T |=T Written=T by=T MDAnalysis=T XYZWriter=T (release=T 2.4.3)=T pbc="F F F"
H       -4.99955000      -9.53628000     -12.33290000
O       -4.30417000      -9.14459000     -12.90904000
H       -4.42708000      -8.18932000     -12.76585000
H       -2.47992000     -10.62977000     -10.35805000
O       -3.29503000     -10.30534000     -10.69299000
H       -3.07494000      -9.75371000     -11.45701000
