6
Properties=species:S:1:pos:R:3 frame=T 0=T |=T Written=T by=T MDAnalysis=T XYZWriter=T (release=T 2.4.3)=T pbc="F F F"
H       -0.61098000       7.82520000      -9.92942000
O       -0.13061000       7.41429000      -9.21694000
H       -0.51768000       7.83587000      -8.46123000
H       -1.88274000       8.37639000      -6.39199000
O       -1.97861000       8.19419000      -7.33340000
H       -2.54806000       8.89451000      -7.70866000
