6
Properties=species:S:1:pos:R:3 frame=T 52=T |=T Written=T by=T MDAnalysis=T XYZWriter=T (release=T 2.4.3)=T pbc="F F F"
H       -4.86576000      14.55182000      -5.61557000
O       -5.84486000      14.38894000      -5.54905000
H       -6.22414000      14.91985000      -6.25295000
H       -5.32421000      17.04137000      -3.40899000
O       -5.92777000      16.28426000      -3.32366000
H       -5.86723000      15.86533000      -4.19761000
