6
Properties=species:S:1:pos:R:3 frame=T 44=T |=T Written=T by=T MDAnalysis=T XYZWriter=T (release=T 2.4.3)=T pbc="F F F"
H        6.98126000       8.12831000      -6.34065000
O        6.64870000       8.64438000      -5.57110000
H        7.46028000       8.83957000      -5.07862000
H        5.96170000       7.86220000      -2.72662000
O        5.24437000       8.11994000      -3.29171000
H        5.74279000       8.41547000      -4.07270000
