6
Properties=species:S:1:pos:R:3 frame=T 18=T |=T Written=T by=T MDAnalysis=T XYZWriter=T (release=T 2.4.3)=T pbc="F F F"
H        4.10672000      -0.13474000       8.10371000
O        5.05691000      -0.30352000       8.12991000
H        5.47918000       0.45429000       7.76474000
H        5.56291000      -2.06578000       7.95568000
O        5.48167000      -3.04678000       7.87473000
H        4.53580000      -3.18996000       7.97642000
