6
Properties=species:S:1:pos:R:3 frame=T 33=T |=T Written=T by=T MDAnalysis=T XYZWriter=T (release=T 2.4.3)=T pbc="F F F"
H       -0.08656000       7.90881000      16.47652000
O        0.68859000       7.60782000      16.92340000
H        0.98539000       8.38413000      17.48113000
H       -0.96717000       8.01139000      14.68181000
O       -1.50982000       7.85572000      15.47031000
H       -2.19509000       8.49047000      15.34078000
