6
Properties=species:S:1:pos:R:3 frame=T 29=T |=T Written=T by=T MDAnalysis=T XYZWriter=T (release=T 2.4.3)=T pbc="F F F"
H        6.85911000      16.52553000       6.56658000
O        6.99556000      15.91469000       5.84202000
H        7.97790000      15.96365000       5.77703000
H        6.15726000      18.11202000       8.28802000
O        5.70539000      17.40483000       7.83500000
H        6.00954000      16.60061000       8.27380000
