6
Properties=species:S:1:pos:R:3 frame=T 37=T |=T Written=T by=T MDAnalysis=T XYZWriter=T (release=T 2.4.3)=T pbc="F F F"
H       -8.19698000       9.34145000       1.37063000
O       -7.68700000       8.91423000       2.11237000
H       -7.68355000       7.99513000       1.86573000
H       -9.11995000       7.12670000       4.71922000
O       -8.50220000       7.85257000       4.58600000
H       -8.55806000       8.10614000       3.64778000
