6
Properties=species:S:1:pos:R:3 frame=T 38=T |=T Written=T by=T MDAnalysis=T XYZWriter=T (release=T 2.4.3)=T pbc="F F F"
H       13.03819000     -16.35155000      -8.42562000
O       12.63948000     -16.17950000      -9.27882000
H       11.72913000     -16.43659000      -9.14866000
H       13.71755000     -16.45691000      -6.23541000
O       13.44840000     -17.09359000      -6.89388000
H       13.49751000     -17.91746000      -6.38859000
