6
Properties=species:S:1:pos:R:3 frame=T 24=T |=T Written=T by=T MDAnalysis=T XYZWriter=T (release=T 2.4.3)=T pbc="F F F"
H      -10.06039000     -10.12356000     -14.49061000
O       -9.17169000     -10.00779000     -14.11381000
H       -9.16400000      -9.06168000     -13.87328000
H      -12.29463000     -10.09060000     -14.85880000
O      -11.48455000     -10.03695000     -15.37674000
H      -11.75950000      -9.74244000     -16.24418000
