6
Properties=species:S:1:pos:R:3 frame=T 2=T |=T Written=T by=T MDAnalysis=T XYZWriter=T (release=T 2.4.3)=T pbc="F F F"
H        4.59846000      -9.16521000       8.82380000
O        4.69385000      -8.99742000       9.74856000
H        5.67810000      -9.07970000       9.85012000
H        7.05679000      -7.92471000      11.31227000
O        7.15341000      -8.56475000      10.57834000
H        7.65417000      -9.28947000      10.98088000
