6
Properties=species:S:1:pos:R:3 frame=T 33=T |=T Written=T by=T MDAnalysis=T XYZWriter=T (release=T 2.4.3)=T pbc="F F F"
H        7.76757000      16.80725000     -12.69747000
O        7.01962000      16.59870000     -12.10448000
H        6.73885000      15.73070000     -12.46526000
H        6.94977000      13.94895000     -13.74388000
O        6.64052000      14.09104000     -12.81678000
H        6.27585000      13.26405000     -12.48634000
