6
Properties=species:S:1:pos:R:3 frame=T 52=T |=T Written=T by=T MDAnalysis=T XYZWriter=T (release=T 2.4.3)=T pbc="F F F"
H      -11.85139000       4.14473000     -11.56941000
O      -12.44957000       3.40155000     -11.62507000
H      -11.85104000       2.68058000     -11.55550000
H      -13.54107000       3.36919000     -13.24080000
O      -14.13138000       3.11900000     -13.97339000
H      -14.07280000       2.17074000     -13.88754000
