6
Properties=species:S:1:pos:R:3 frame=T 35=T |=T Written=T by=T MDAnalysis=T XYZWriter=T (release=T 2.4.3)=T pbc="F F F"
H      -12.27256000     -16.17526000       8.25057000
O      -12.42437000     -15.51330000       7.57889000
H      -13.16344000     -14.96547000       7.91576000
H      -12.29186000     -18.15318000      10.03267000
O      -12.23536000     -17.69565000       9.18554000
H      -11.26904000     -17.58162000       9.02869000
