6
Properties=species:S:1:pos:R:3 frame=T 13=T |=T Written=T by=T MDAnalysis=T XYZWriter=T (release=T 2.4.3)=T pbc="F F F"
H      -15.53813000      -3.97880000      12.28135000
O      -14.67959000      -4.43534000      12.36581000
H      -14.42548000      -4.46111000      11.47938000
H      -12.48590000      -4.55503000       9.83041000
O      -13.30899000      -4.97510000      10.05674000
H      -13.91817000      -4.45939000       9.53902000
