6
Properties=species:S:1:pos:R:3 frame=T 4=T |=T Written=T by=T MDAnalysis=T XYZWriter=T (release=T 2.4.3)=T pbc="F F F"
H       -2.79979000      15.28289000     -17.28536000
O       -2.40469000      14.97884000     -18.10111000
H       -1.98538000      15.76560000     -18.44031000
H       -0.50566000      18.13754000     -18.46268000
O       -0.96333000      17.31737000     -18.17743000
H       -1.17153000      17.47430000     -17.23565000
