6
Properties=species:S:1:pos:R:3 frame=T 43=T |=T Written=T by=T MDAnalysis=T XYZWriter=T (release=T 2.4.3)=T pbc="F F F"
H      -10.55532000      14.39644000      -3.00835000
O      -11.27123000      15.03681000      -3.03216000
H      -11.53990000      14.94952000      -3.94016000
H      -12.52440000      14.68718000      -5.89636000
O      -11.99637000      14.02661000      -5.41189000
H      -11.48611000      13.57925000      -6.09959000
