6
Properties=species:S:1:pos:R:3 frame=T 9=T |=T Written=T by=T MDAnalysis=T XYZWriter=T (release=T 2.4.3)=T pbc="F F F"
H        7.87455000       0.94391000       9.90875000
O        7.70917000       0.89155000       8.96920000
H        8.22376000       1.61523000       8.57411000
H        8.04809000       3.19294000       6.58185000
O        7.90075000       3.06179000       7.54107000
H        8.66767000       3.45931000       7.98786000
