6
Properties=species:S:1:pos:R:3 frame=T 5=T |=T Written=T by=T MDAnalysis=T XYZWriter=T (release=T 2.4.3)=T pbc="F F F"
H        1.22257000     -13.64303000      -7.01722000
O        1.43880000     -13.15934000      -7.81334000
H        0.58525000     -13.07374000      -8.22637000
H        1.68600000     -11.41979000      -8.17836000
O        1.43069000     -10.58950000      -8.60194000
H        1.60767000      -9.94584000      -7.89897000
