6
Properties=species:S:1:pos:R:3 frame=T 46=T |=T Written=T by=T MDAnalysis=T XYZWriter=T (release=T 2.4.3)=T pbc="F F F"
H      -10.39738000      16.73752000       2.60926000
O      -11.29510000      17.07413000       2.68643000
H      -11.19923000      17.96067000       3.09538000
H      -12.18528000      17.65083000       1.29879000
O      -12.51740000      17.95311000       0.43577000
H      -12.31419000      17.21239000      -0.17796000
