6
Properties=species:S:1:pos:R:3 frame=T 32=T |=T Written=T by=T MDAnalysis=T XYZWriter=T (release=T 2.4.3)=T pbc="F F F"
H       -3.81625000       7.51208000      -6.51808000
O       -3.02877000       7.49113000      -7.06054000
H       -3.19462000       6.64859000      -7.49775000
H       -2.04711000       6.20410000      -5.85065000
O       -1.84473000       5.36758000      -5.41499000
H       -1.16814000       5.64304000      -4.78624000
