6
Properties=species:S:1:pos:R:3 frame=T 51=T |=T Written=T by=T MDAnalysis=T XYZWriter=T (release=T 2.4.3)=T pbc="F F F"
H        2.26371000     -12.30407000       3.19210000
O        1.33034000     -12.16548000       3.32716000
H        1.18066000     -12.24154000       4.26762000
H       -1.49359000     -12.54358000       4.14956000
O       -1.42033000     -12.60250000       3.17197000
H       -0.56132000     -12.23846000       2.97172000
