6
Properties=species:S:1:pos:R:3 frame=T 53=T |=T Written=T by=T MDAnalysis=T XYZWriter=T (release=T 2.4.3)=T pbc="F F F"
H       10.34027000      16.98005000      -8.98899000
O       11.21413000      16.63308000      -8.99360000
H       11.02777000      15.79500000      -9.46466000
H       11.60657000      17.55529000     -10.59962000
O       11.29000000      17.74557000     -11.47698000
H       10.33241000      17.50373000     -11.54559000
