6
Properties=species:S:1:pos:R:3 frame=T 28=T |=T Written=T by=T MDAnalysis=T XYZWriter=T (release=T 2.4.3)=T pbc="F F F"
H       -3.29379000      -4.12345000     -17.33049000
O       -3.78383000      -3.70724000     -16.58243000
H       -3.19131000      -3.78048000     -15.82585000
H       -0.96098000      -4.82631000     -17.27410000
O       -1.20593000      -5.22851000     -16.42381000
H       -1.34622000      -4.45144000     -15.85163000
