6
Properties=species:S:1:pos:R:3 frame=T 3=T |=T Written=T by=T MDAnalysis=T XYZWriter=T (release=T 2.4.3)=T pbc="F F F"
H       -6.70653000       6.47766000     -13.19920000
O       -7.64738000       6.39801000     -13.37843000
H       -7.94997000       5.69302000     -12.77417000
H       -3.83862000       6.53761000     -15.00841000
O       -4.77988000       6.78154000     -15.12796000
H       -5.08223000       6.91963000     -14.22749000
