6
Properties=species:S:1:pos:R:3 frame=T 30=T |=T Written=T by=T MDAnalysis=T XYZWriter=T (release=T 2.4.3)=T pbc="F F F"
H        2.62178000      15.49380000      18.41799000
O        3.25364000      14.81154000      18.66855000
H        3.93998000      14.87562000      17.96651000
H        1.35081000      13.02443000      16.33271000
O        1.19390000      12.67234000      17.23736000
H        2.09468000      12.70503000      17.58317000
