6
Properties=species:S:1:pos:R:3 frame=T 30=T |=T Written=T by=T MDAnalysis=T XYZWriter=T (release=T 2.4.3)=T pbc="F F F"
H       18.55960000      12.93069000      10.49492000
O       18.77933000      12.86482000      11.43730000
H       17.89441000      12.68314000      11.83034000
H       19.00454000      13.52830000       7.59395000
O       19.13407000      12.81339000       8.22072000
H       18.37770000      12.23297000       8.01064000
