6
Properties=species:S:1:pos:R:3 frame=T 8=T |=T Written=T by=T MDAnalysis=T XYZWriter=T (release=T 2.4.3)=T pbc="F F F"
H        1.35609000      -8.36146000       2.54806000
O        2.06606000      -8.32415000       3.16695000
H        1.73309000      -8.82845000       3.90729000
H       -0.23471000     -10.01218000       5.16386000
O        0.67870000      -9.79869000       5.22975000
H        0.70212000      -9.10415000       5.90850000
