6
Properties=species:S:1:pos:R:3 frame=T 39=T |=T Written=T by=T MDAnalysis=T XYZWriter=T (release=T 2.4.3)=T pbc="F F F"
H      -15.59093000      -0.82104000     -12.02043000
O      -14.65271000      -0.50857000     -12.09245000
H      -14.39103000      -0.74351000     -12.98584000
H      -14.86420000      -1.91088000     -10.68324000
O      -14.76500000      -2.43122000      -9.88871000
H      -15.35316000      -3.18281000      -9.93440000
