6
Properties=species:S:1:pos:R:3 frame=T 48=T |=T Written=T by=T MDAnalysis=T XYZWriter=T (release=T 2.4.3)=T pbc="F F F"
H       -6.35802000       7.23078000      -2.63496000
O       -6.88566000       7.61353000      -3.35448000
H       -6.57478000       8.51755000      -3.37087000
H       -6.82046000       6.34837000      -4.69480000
O       -6.63534000       5.89439000      -5.53437000
H       -7.32544000       6.23733000      -6.10934000
