6
Properties=species:S:1:pos:R:3 frame=T 13=T |=T Written=T by=T MDAnalysis=T XYZWriter=T (release=T 2.4.3)=T pbc="F F F"
H       -7.17704000       8.52851000      -2.98097000
O       -6.84760000       7.96770000      -2.26901000
H       -7.55669000       7.31246000      -2.22342000
H       -9.38574000       6.27575000      -1.22260000
O       -8.56501000       5.98932000      -1.66546000
H       -8.76354000       5.19168000      -2.15631000
