6
Properties=species:S:1:pos:R:3 frame=T 18=T |=T Written=T by=T MDAnalysis=T XYZWriter=T (release=T 2.4.3)=T pbc="F F F"
H       15.73540000      14.59654000     -18.67932000
O       15.18204000      15.33149000     -18.91038000
H       14.32832000      14.96959000     -18.62784000
H       15.57106000      11.88544000     -17.94368000
O       15.75975000      12.69489000     -18.44343000
H       16.73066000      12.65604000     -18.49416000
