6
Properties=species:S:1:pos:R:3 frame=T 24=T |=T Written=T by=T MDAnalysis=T XYZWriter=T (release=T 2.4.3)=T pbc="F F F"
H        4.06288000      -6.33356000     -16.77519000
O        4.73584000      -6.79699000     -16.25887000
H        5.58851000      -6.53860000     -16.63834000
H        7.70688000      -5.02324000     -16.87802000
O        6.76182000      -5.00681000     -16.85069000
H        6.55936000      -4.55544000     -16.02628000
