6
Properties=species:S:1:pos:R:3 frame=T 21=T |=T Written=T by=T MDAnalysis=T XYZWriter=T (release=T 2.4.3)=T pbc="F F F"
H        4.50171000       7.05209000      -8.63100000
O        4.35781000       6.12833000      -8.52625000
H        3.49291000       5.96679000      -8.86650000
H        4.93246000       8.96641000      -9.23936000
O        5.26818000       8.57272000      -8.39810000
H        5.00101000       9.24185000      -7.76654000
