6
Properties=species:S:1:pos:R:3 frame=T 48=T |=T Written=T by=T MDAnalysis=T XYZWriter=T (release=T 2.4.3)=T pbc="F F F"
H      -14.50718000      13.21597000      17.14700000
O      -14.85731000      13.31944000      18.03059000
H      -15.61516000      13.89101000      17.87437000
H      -17.63621000      14.56593000      18.72836000
O      -16.83628000      14.98647000      18.40111000
H      -17.14867000      15.45042000      17.64704000
