6
Properties=species:S:1:pos:R:3 frame=T 36=T |=T Written=T by=T MDAnalysis=T XYZWriter=T (release=T 2.4.3)=T pbc="F F F"
H       11.05969000      -5.08119000     -13.39480000
O       11.94058000      -4.71348000     -13.42262000
H       12.21869000      -4.57066000     -12.52458000
H        9.45650000      -6.26548000     -14.51892000
O        9.26411000      -5.34690000     -14.24595000
H        9.40886000      -4.90998000     -15.10678000
