6
Properties=species:S:1:pos:R:3 frame=T 0=T |=T Written=T by=T MDAnalysis=T XYZWriter=T (release=T 2.4.3)=T pbc="F F F"
H      -14.34904000       1.92596000     -17.21754000
O      -14.94779000       2.47811000     -17.76954000
H      -15.03249000       1.97947000     -18.57373000
H      -17.68254000       1.80283000     -15.84950000
O      -17.14056000       1.17749000     -16.36092000
H      -16.74878000       1.66869000     -17.08677000
