6
Properties=species:S:1:pos:R:3 frame=T 31=T |=T Written=T by=T MDAnalysis=T XYZWriter=T (release=T 2.4.3)=T pbc="F F F"
H       16.04268000      16.43820000     -15.20038000
O       16.63139000      16.98664000     -15.72416000
H       17.35374000      16.32507000     -15.85782000
H       18.07741000      17.88324000     -14.84244000
O       18.59301000      18.62980000     -14.46540000
H       19.47042000      18.29464000     -14.66867000
