6
Properties=species:S:1:pos:R:3 frame=T 51=T |=T Written=T by=T MDAnalysis=T XYZWriter=T (release=T 2.4.3)=T pbc="F F F"
H       -1.22046000      -6.93319000     -17.00664000
O       -1.17781000      -7.69401000     -17.60240000
H       -1.47819000      -8.41728000     -17.04091000
H       -0.89619000      -4.86286000     -17.77697000
O       -0.99543000      -5.10494000     -16.83423000
H       -0.03648000      -5.17629000     -16.52379000
