6
Properties=species:S:1:pos:R:3 frame=T 17=T |=T Written=T by=T MDAnalysis=T XYZWriter=T (release=T 2.4.3)=T pbc="F F F"
H       14.12496000      15.50656000     -11.61000000
O       13.18254000      15.27003000     -11.58937000
H       12.72791000      16.10154000     -11.37853000
H       12.01800000      17.40430000     -12.85391000
O       11.46978000      17.23356000     -12.07920000
H       10.57895000      17.22835000     -12.45797000
