6
Properties=species:S:1:pos:R:3 frame=T 51=T |=T Written=T by=T MDAnalysis=T XYZWriter=T (release=T 2.4.3)=T pbc="F F F"
H        0.24671000       1.69494000      17.42957000
O       -0.00643000       2.64377000      17.44293000
H        0.83668000       3.01196000      17.10653000
H        2.44745000       4.82332000      16.75421000
O        2.29731000       3.89737000      16.99208000
H        2.60639000       3.87993000      17.90589000
