6
Properties=species:S:1:pos:R:3 frame=T 36=T |=T Written=T by=T MDAnalysis=T XYZWriter=T (release=T 2.4.3)=T pbc="F F F"
H        9.35429000      13.78584000       8.56786000
O        9.64828000      13.05470000       7.99370000
H        9.40741000      12.26488000       8.52246000
H        8.65489000      15.80361000      10.29050000
O        8.76216000      14.98629000       9.75331000
H        8.66786000      14.29920000      10.43042000
