6
Properties=species:S:1:pos:R:3 frame=T 35=T |=T Written=T by=T MDAnalysis=T XYZWriter=T (release=T 2.4.3)=T pbc="F F F"
H       -8.20679000      16.47171000       0.70683000
O       -8.15935000      17.36625000       1.03491000
H       -7.36136000      17.70394000       0.57972000
H       -8.20966000      14.21635000       0.30170000
O       -7.92062000      15.01540000      -0.17526000
H       -7.35227000      14.66864000      -0.85859000
