6
Properties=species:S:1:pos:R:3 frame=T 28=T |=T Written=T by=T MDAnalysis=T XYZWriter=T (release=T 2.4.3)=T pbc="F F F"
H       16.80653000       5.96594000      -6.14186000
O       16.06763000       6.33567000      -6.60909000
H       16.39334000       6.52997000      -7.51268000
H       14.79859000       5.18709000      -6.31737000
O       13.90021000       4.99074000      -5.94505000
H       13.70432000       4.09501000      -6.25151000
