6
Properties=species:S:1:pos:R:3 frame=T 33=T |=T Written=T by=T MDAnalysis=T XYZWriter=T (release=T 2.4.3)=T pbc="F F F"
H      -18.97397000      -4.55868000       2.94711000
O      -18.44562000      -5.24109000       3.36201000
H      -17.51766000      -4.95350000       3.36690000
H      -18.32201000      -6.17711000       4.82487000
O      -18.28348000      -6.91900000       5.44380000
H      -18.44130000      -7.69532000       4.88674000
