6
Properties=species:S:1:pos:R:3 frame=T 19=T |=T Written=T by=T MDAnalysis=T XYZWriter=T (release=T 2.4.3)=T pbc="F F F"
H        1.00168000     -11.63747000      -1.97115000
O        1.62358000     -11.48496000      -1.22172000
H        1.69395000     -10.51556000      -1.28548000
H        4.82053000     -12.17634000      -1.83631000
O        4.14406000     -12.50415000      -1.24112000
H        3.37849000     -12.04042000      -1.58916000
