6
Properties=species:S:1:pos:R:3 frame=T 2=T |=T Written=T by=T MDAnalysis=T XYZWriter=T (release=T 2.4.3)=T pbc="F F F"
H        8.51953000       5.33523000      -6.62225000
O        8.35603000       5.48240000      -7.56434000
H        9.22634000       5.60244000      -7.93017000
H       11.18611000       6.00217000      -8.31113000
O       10.68072000       6.26351000      -9.10598000
H       10.58768000       7.24084000      -9.01478000
