6
Properties=species:S:1:pos:R:3 frame=T 28=T |=T Written=T by=T MDAnalysis=T XYZWriter=T (release=T 2.4.3)=T pbc="F F F"
H      -18.40624000     -15.54973000      -6.08387000
O      -18.57935000     -14.64231000      -5.72427000
H      -17.75504000     -14.13217000      -5.86343000
H      -17.90895000     -16.20839000      -7.93887000
O      -18.09806000     -16.95727000      -7.33167000
H      -18.21836000     -17.74160000      -7.92167000
