6
Properties=species:S:1:pos:R:3 frame=T 2=T |=T Written=T by=T MDAnalysis=T XYZWriter=T (release=T 2.4.3)=T pbc="F F F"
H       -0.75924000       2.19100000      10.67242000
O       -0.14979000       2.06396000      11.41057000
H       -0.21458000       2.90828000      11.86977000
H        3.01467000       1.60161000      11.29690000
O        2.26799000       0.98800000      11.24223000
H        1.54937000       1.65164000      11.29651000
