6
Properties=species:S:1:pos:R:3 frame=T 34=T |=T Written=T by=T MDAnalysis=T XYZWriter=T (release=T 2.4.3)=T pbc="F F F"
H        4.34320000      -9.08111000      11.42489000
O        3.61789000      -8.47065000      11.49017000
H        3.65258000      -7.93995000      10.66462000
H        4.03690000     -11.30024000      10.57785000
O        4.67675000     -10.92796000      11.18026000
H        4.44131000     -11.39173000      11.99336000
