6
Properties=species:S:1:pos:R:3 frame=T 40=T |=T Written=T by=T MDAnalysis=T XYZWriter=T (release=T 2.4.3)=T pbc="F F F"
H       13.05270000     -11.80033000     -15.25483000
O       13.42223000     -11.66559000     -14.37188000
H       14.36842000     -11.70292000     -14.59047000
H       15.98211000     -10.46734000     -14.41482000
O       16.09048000     -11.33102000     -13.97080000
H       16.67120000     -11.90220000     -14.49213000
