6
Properties=species:S:1:pos:R:3 frame=T 22=T |=T Written=T by=T MDAnalysis=T XYZWriter=T (release=T 2.4.3)=T pbc="F F F"
H        1.98730000     -10.58977000     -12.32976000
O        2.58682000     -10.47854000     -13.06965000
H        3.40566000     -10.94434000     -12.78587000
H        5.33922000     -12.14993000     -12.53871000
O        5.09762000     -11.30098000     -12.95709000
H        5.32168000     -11.44750000     -13.88949000
