6
Properties=species:S:1:pos:R:3 frame=T 39=T |=T Written=T by=T MDAnalysis=T XYZWriter=T (release=T 2.4.3)=T pbc="F F F"
H       -1.14157000      -8.21642000      -4.15042000
O       -1.24304000      -8.54074000      -3.26110000
H       -0.58176000      -7.99548000      -2.78800000
H        0.35777000      -6.94708000      -1.26836000
O        0.76837000      -7.80078000      -1.42257000
H        1.67721000      -7.50258000      -1.59065000
