6
Properties=species:S:1:pos:R:3 frame=T 35=T |=T Written=T by=T MDAnalysis=T XYZWriter=T (release=T 2.4.3)=T pbc="F F F"
H       -0.17840000      17.19020000       1.55119000
O       -0.78395000      17.06648000       2.29119000
H       -0.29582000      16.48004000       2.87724000
H        1.89427000      17.38243000       0.63234000
O        0.99964000      17.17439000       0.27356000
H        1.21778000      16.52388000      -0.45132000
