6
Properties=species:S:1:pos:R:3 frame=T 46=T |=T Written=T by=T MDAnalysis=T XYZWriter=T (release=T 2.4.3)=T pbc="F F F"
H        9.29486000      -0.21720000      -5.83231000
O        9.06411000       0.61385000      -6.26064000
H        9.80077000       1.16696000      -6.00396000
H        7.77659000       0.96014000      -4.77092000
O        7.37820000       1.34997000      -4.00455000
H        7.25523000       2.29194000      -4.19929000
