6
Properties=species:S:1:pos:R:3 frame=T 52=T |=T Written=T by=T MDAnalysis=T XYZWriter=T (release=T 2.4.3)=T pbc="F F F"
H       -0.44704000      -1.79848000      -7.00744000
O        0.39938000      -2.22996000      -6.84758000
H        0.87220000      -2.09394000      -7.68642000
H       -1.68752000      -0.11145000      -8.17962000
O       -1.79013000      -0.84274000      -7.56046000
H       -2.46156000      -0.60694000      -6.89154000
