6
Properties=species:S:1:pos:R:3 frame=T 47=T |=T Written=T by=T MDAnalysis=T XYZWriter=T (release=T 2.4.3)=T pbc="F F F"
H      -13.40681000     -18.21549000     -10.77268000
O      -12.57938000     -18.61876000     -10.86546000
H      -12.00938000     -17.94756000     -10.47033000
H      -15.86887000     -17.99331000      -9.24885000
O      -15.02496000     -17.92684000      -9.75285000
H      -14.37590000     -17.83939000      -9.02523000
