6
Properties=species:S:1:pos:R:3 frame=T 0=T |=T Written=T by=T MDAnalysis=T XYZWriter=T (release=T 2.4.3)=T pbc="F F F"
H        7.96564000      17.85119000     -10.08045000
O        7.50949000      17.11898000     -10.48601000
H        8.03949000      16.88904000     -11.25970000
H        9.07124000      15.68600000     -13.34832000
O        9.31477000      16.26249000     -12.57222000
H        9.61874000      15.59813000     -11.96736000
