6
Properties=species:S:1:pos:R:3 frame=T 14=T |=T Written=T by=T MDAnalysis=T XYZWriter=T (release=T 2.4.3)=T pbc="F F F"
H       -7.04057000      -7.43606000      -7.95229000
O       -6.79191000      -7.89632000      -7.10317000
H       -7.22090000      -7.34212000      -6.42159000
H       -7.64728000     -10.89504000      -7.49184000
O       -8.22442000     -10.13561000      -7.44997000
H       -7.63388000      -9.36439000      -7.24132000
