6
Properties=species:S:1:pos:R:3 frame=T 16=T |=T Written=T by=T MDAnalysis=T XYZWriter=T (release=T 2.4.3)=T pbc="F F F"
H       -4.13027000     -17.28532000      10.85973000
O       -3.77680000     -18.17303000      10.76383000
H       -3.01278000     -18.18724000      11.36723000
H       -3.50985000     -15.19045000       9.95553000
O       -4.33150000     -15.55984000      10.25146000
H       -4.98620000     -15.25957000       9.62819000
