6
Properties=species:S:1:pos:R:3 frame=T 15=T |=T Written=T by=T MDAnalysis=T XYZWriter=T (release=T 2.4.3)=T pbc="F F F"
H       17.68076000      12.87143000     -13.80971000
O       17.12246000      12.45971000     -14.46702000
H       16.29603000      12.32916000     -13.97137000
H       18.27456000      14.01597000     -12.04798000
O       18.77940000      13.41952000     -12.61048000
H       19.32762000      12.86987000     -12.04046000
