6
Properties=species:S:1:pos:R:3 frame=T 53=T |=T Written=T by=T MDAnalysis=T XYZWriter=T (release=T 2.4.3)=T pbc="F F F"
H       -8.76312000       4.86561000     -10.55849000
O       -8.02246000       4.44813000     -10.11588000
H       -7.55486000       4.25271000     -10.92699000
H       -6.11865000       5.14731000      -8.01521000
O       -6.94784000       4.89430000      -7.62405000
H       -7.47627000       4.76072000      -8.44144000
