6
Properties=species:S:1:pos:R:3 frame=T 10=T |=T Written=T by=T MDAnalysis=T XYZWriter=T (release=T 2.4.3)=T pbc="F F F"
H      -10.65105000      12.09819000     -17.50970000
O      -11.45819000      11.57822000     -17.54606000
H      -11.22227000      10.86803000     -18.19534000
H       -8.73162000      11.74540000     -16.97521000
O       -8.82619000      12.68545000     -17.09204000
H       -8.62211000      13.06841000     -16.23336000
