6
Properties=species:S:1:pos:R:3 frame=T 26=T |=T Written=T by=T MDAnalysis=T XYZWriter=T (release=T 2.4.3)=T pbc="F F F"
H       11.85288000      14.61240000      -2.62947000
O       12.42115000      14.84900000      -3.39069000
H       12.39827000      15.82001000      -3.40886000
H       13.70129000      16.27514000      -5.77910000
O       14.17874000      15.42694000      -5.61104000
H       13.92887000      15.09550000      -4.74234000
