6
Properties=species:S:1:pos:R:3 frame=T 22=T |=T Written=T by=T MDAnalysis=T XYZWriter=T (release=T 2.4.3)=T pbc="F F F"
H        9.22383000     -14.79327000     -11.22464000
O        9.55241000     -14.02518000     -11.67983000
H        9.03518000     -14.07694000     -12.49464000
H        7.64824000     -12.19563000      -9.68093000
O        7.55360000     -13.16170000      -9.58987000
H        8.26473000     -13.48749000     -10.13473000
