6
Properties=species:S:1:pos:R:3 frame=T 33=T |=T Written=T by=T MDAnalysis=T XYZWriter=T (release=T 2.4.3)=T pbc="F F F"
H        0.25613000     -10.23098000      15.39890000
O        0.19137000     -11.11280000      15.03285000
H       -0.77347000     -11.30838000      15.02880000
H        1.01139000     -10.31550000      13.42824000
O        0.65477000      -9.68031000      12.79402000
H        1.41753000      -9.41135000      12.25468000
