6
Properties=species:S:1:pos:R:3 frame=T 21=T |=T Written=T by=T MDAnalysis=T XYZWriter=T (release=T 2.4.3)=T pbc="F F F"
H       -0.13531000      12.13676000      15.96714000
O       -0.62203000      12.46050000      16.75850000
H       -0.61168000      13.40568000      16.58208000
H       -3.10684000      12.68565000      18.11907000
O       -3.07600000      13.14989000      18.96511000
H       -2.15095000      13.39674000      19.03760000
