6
Properties=species:S:1:pos:R:3 frame=T 52=T |=T Written=T by=T MDAnalysis=T XYZWriter=T (release=T 2.4.3)=T pbc="F F F"
H        4.73361000     -17.65683000      -1.59874000
O        4.81696000     -18.34340000      -2.25703000
H        3.93541000     -18.49333000      -2.62270000
H        5.71659000     -16.31836000       0.82808000
O        5.12886000     -15.90628000       0.16196000
H        5.71875000     -15.71931000      -0.54115000
