6
Properties=species:S:1:pos:R:3 frame=T 51=T |=T Written=T by=T MDAnalysis=T XYZWriter=T (release=T 2.4.3)=T pbc="F F F"
H       15.83409000      19.46784000      17.39136000
O       15.97569000      18.92501000      18.16554000
H       16.37488000      18.15212000      17.73282000
H       14.69711000      17.72169000      15.32457000
O       14.46227000      16.88321000      15.73545000
H       15.32460000      16.43225000      15.66341000
