6
Properties=species:S:1:pos:R:3 frame=T 9=T |=T Written=T by=T MDAnalysis=T XYZWriter=T (release=T 2.4.3)=T pbc="F F F"
H        0.34163000     -14.78804000      -9.01194000
O       -0.21225000     -14.15938000      -8.55780000
H       -1.12217000     -14.45976000      -8.70416000
H       -0.11047000     -15.29842000      -6.34634000
O       -0.43699000     -16.21266000      -6.50809000
H       -0.64799000     -16.27786000      -7.44884000
