6
Properties=species:S:1:pos:R:3 frame=T 26=T |=T Written=T by=T MDAnalysis=T XYZWriter=T (release=T 2.4.3)=T pbc="F F F"
H       -5.19300000      11.29289000      -2.24038000
O       -6.04118000      10.85200000      -2.22073000
H       -6.57520000      11.36584000      -1.62749000
H       -7.08760000       9.31091000      -2.27933000
O       -7.37884000       8.42282000      -2.13544000
H       -6.74865000       8.05229000      -1.50486000
