6
Properties=species:S:1:pos:R:3 frame=T 0=T |=T Written=T by=T MDAnalysis=T XYZWriter=T (release=T 2.4.3)=T pbc="F F F"
H       -1.57697000      -6.23325000     -17.73500000
O       -0.62967000      -6.40636000     -17.94307000
H       -0.57163000      -7.38635000     -17.96237000
H        2.25670000      -6.26956000     -16.97570000
O        1.65456000      -5.74392000     -16.38829000
H        0.81477000      -5.84747000     -16.85847000
