6
Properties=species:S:1:pos:R:3 frame=T 25=T |=T Written=T by=T MDAnalysis=T XYZWriter=T (release=T 2.4.3)=T pbc="F F F"
H        9.25404000       1.98547000      -8.07652000
O        8.88473000       1.08855000      -8.01667000
H        9.17542000       0.64341000      -8.85096000
H       10.35907000      -0.66485000     -10.63782000
O        9.81254000       0.12711000     -10.60922000
H       10.46646000       0.80082000     -10.79383000
