6
Properties=species:S:1:pos:R:3 frame=T 9=T |=T Written=T by=T MDAnalysis=T XYZWriter=T (release=T 2.4.3)=T pbc="F F F"
H       -9.37423000     -15.46236000      13.90774000
O       -9.91505000     -16.16516000      14.34559000
H       -9.26797000     -16.64013000      14.88811000
H       -7.46594000     -16.65257000      16.23731000
O       -8.30164000     -17.12639000      16.29059000
H       -8.22791000     -17.72016000      17.02703000
