6
Properties=species:S:1:pos:R:3 frame=T 29=T |=T Written=T by=T MDAnalysis=T XYZWriter=T (release=T 2.4.3)=T pbc="F F F"
H       12.36809000       3.62347000     -11.82805000
O       12.85691000       3.71685000     -12.66149000
H       12.37965000       3.10377000     -13.27586000
H       11.44259000       2.38007000     -10.19240000
O       11.07193000       3.26575000     -10.31729000
H       11.47034000       3.78426000      -9.62271000
