6
Properties=species:S:1:pos:R:3 frame=T 31=T |=T Written=T by=T MDAnalysis=T XYZWriter=T (release=T 2.4.3)=T pbc="F F F"
H       -5.76039000       5.20269000     -12.74842000
O       -5.99782000       4.66177000     -11.97363000
H       -5.32009000       3.99357000     -11.94785000
H       -2.93385000       2.55265000     -11.66932000
O       -3.70866000       2.95379000     -11.21580000
H       -3.42972000       3.87544000     -11.20110000
