6
Properties=species:S:1:pos:R:3 frame=T 48=T |=T Written=T by=T MDAnalysis=T XYZWriter=T (release=T 2.4.3)=T pbc="F F F"
H      -14.85967000     -14.87284000       3.59205000
O      -15.18093000     -14.55101000       4.44065000
H      -15.89560000     -13.94724000       4.25869000
H      -15.46737000     -16.54295000       2.70735000
O      -14.49495000     -16.69289000       2.70827000
H      -14.21261000     -16.49699000       1.78644000
