6
Properties=species:S:1:pos:R:3 frame=T 3=T |=T Written=T by=T MDAnalysis=T XYZWriter=T (release=T 2.4.3)=T pbc="F F F"
H        4.05627000     -18.18239000      -0.79200000
O        3.22917000     -18.68586000      -0.79937000
H        3.21974000     -18.96304000      -1.72334000
H        5.76813000     -16.57218000      -1.49021000
O        5.57135000     -17.45691000      -1.71649000
H        6.41327000     -17.87507000      -1.45298000
