6
Properties=species:S:1:pos:R:3 frame=T 20=T |=T Written=T by=T MDAnalysis=T XYZWriter=T (release=T 2.4.3)=T pbc="F F F"
H       -7.54954000      -7.79897000     -17.31099000
O       -8.49795000      -7.85734000     -17.18653000
H       -8.81774000      -8.19782000     -18.00235000
H       -8.28400000      -7.81288000     -14.10180000
O       -9.12236000      -7.74869000     -14.59287000
H       -8.87490000      -7.56950000     -15.49040000
