6
Properties=species:S:1:pos:R:3 frame=T 52=T |=T Written=T by=T MDAnalysis=T XYZWriter=T (release=T 2.4.3)=T pbc="F F F"
H      -14.74747000      -1.19624000       2.45389000
O      -14.76240000      -0.26253000       2.24496000
H      -13.92248000       0.10425000       2.61533000
H      -16.09299000      -0.43966000       3.53531000
O      -16.84141000      -0.59155000       4.17276000
H      -17.67011000      -0.64439000       3.68687000
