6
Properties=species:S:1:pos:R:3 frame=T 17=T |=T Written=T by=T MDAnalysis=T XYZWriter=T (release=T 2.4.3)=T pbc="F F F"
H       -8.98256000       3.30512000       9.53072000
O       -8.61849000       2.53650000       9.06800000
H       -8.90056000       1.80355000       9.60361000
H      -10.19195000       1.42798000       8.21238000
O      -10.45124000       1.09892000       7.36664000
H      -11.41128000       1.21008000       7.37756000
