6
Properties=species:S:1:pos:R:3 frame=T 48=T |=T Written=T by=T MDAnalysis=T XYZWriter=T (release=T 2.4.3)=T pbc="F F F"
H        7.42728000       0.88155000      -7.18658000
O        7.32846000       1.73593000      -6.75038000
H        8.00784000       2.31783000      -7.15176000
H       10.17270000       2.32356000      -6.43832000
O        9.81152000       2.85661000      -7.13961000
H        9.93641000       3.77532000      -6.82352000
