6
Properties=species:S:1:pos:R:3 frame=T 11=T |=T Written=T by=T MDAnalysis=T XYZWriter=T (release=T 2.4.3)=T pbc="F F F"
H       -7.13344000      16.50559000      10.04059000
O       -7.92272000      15.98220000       9.94027000
H       -7.68784000      15.40764000       9.20466000
H       -7.76559000      15.47644000      11.70806000
O       -7.81946000      14.71035000      12.29991000
H       -8.12300000      15.15282000      13.11724000
