6
Properties=species:S:1:pos:R:3 frame=T 54=T |=T Written=T by=T MDAnalysis=T XYZWriter=T (release=T 2.4.3)=T pbc="F F F"
H        1.04454000      -1.36235000       9.15242000
O        0.56389000      -0.55059000       9.27325000
H       -0.12975000      -0.65453000       8.58914000
H       -1.57984000      -0.78349000       6.18100000
O       -1.08623000      -1.04522000       6.96864000
H       -0.46744000      -1.72170000       6.61009000
