6
Properties=species:S:1:pos:R:3 frame=T 45=T |=T Written=T by=T MDAnalysis=T XYZWriter=T (release=T 2.4.3)=T pbc="F F F"
H      -10.90776000     -18.78234000       1.11125000
O      -10.19158000     -18.15623000       1.23788000
H       -9.90995000     -18.06945000       0.31671000
H      -10.08990000     -17.94852000      -1.91806000
O       -9.49516000     -17.67755000      -1.23994000
H       -8.95498000     -16.97246000      -1.64837000
