6
Properties=species:S:1:pos:R:3 frame=T 15=T |=T Written=T by=T MDAnalysis=T XYZWriter=T (release=T 2.4.3)=T pbc="F F F"
H       -7.67523000     -18.16566000       6.53806000
O       -8.38069000     -17.93703000       7.15760000
H       -8.42194000     -16.97712000       7.11924000
H       -6.57068000     -19.66451000       4.57788000
O       -6.58324000     -18.90624000       5.19574000
H       -6.76475000     -18.14813000       4.69999000
