6
Properties=species:S:1:pos:R:3 frame=T 36=T |=T Written=T by=T MDAnalysis=T XYZWriter=T (release=T 2.4.3)=T pbc="F F F"
H        0.96362000       8.12064000     -12.77229000
O        1.69973000       8.64040000     -13.09421000
H        2.41813000       8.00667000     -13.01985000
H        2.36711000      10.18743000     -13.41865000
O        2.61977000      10.98446000     -13.91269000
H        2.75414000      10.64076000     -14.80435000
