6
Properties=species:S:1:pos:R:3 frame=T 35=T |=T Written=T by=T MDAnalysis=T XYZWriter=T (release=T 2.4.3)=T pbc="F F F"
H        5.09338000       9.64678000      -6.21832000
O        5.30131000      10.57016000      -6.42695000
H        5.68562000      10.84262000      -5.59670000
H        6.57772000      10.38896000      -7.83762000
O        7.28026000      10.51590000      -8.48957000
H        7.96830000       9.88794000      -8.22344000
