6
Properties=species:S:1:pos:R:3 frame=T 17=T |=T Written=T by=T MDAnalysis=T XYZWriter=T (release=T 2.4.3)=T pbc="F F F"
H       -5.25640000      -3.42577000       5.64299000
O       -5.72632000      -3.65635000       6.45780000
H       -5.04948000      -3.94619000       7.07230000
H       -7.10365000      -1.35100000       7.91179000
O       -7.55630000      -2.18591000       7.78178000
H       -6.96045000      -2.72038000       7.20985000
