6
Properties=species:S:1:pos:R:3 frame=T 5=T |=T Written=T by=T MDAnalysis=T XYZWriter=T (release=T 2.4.3)=T pbc="F F F"
H       -7.25231000     -11.82370000      11.82404000
O       -7.08514000     -12.37503000      11.03938000
H       -6.27780000     -12.88069000      11.23229000
H       -4.93742000     -14.06956000      12.22015000
O       -5.08905000     -14.36562000      11.30467000
H       -5.64182000     -15.13964000      11.41594000
