6
Properties=species:S:1:pos:R:3 frame=T 41=T |=T Written=T by=T MDAnalysis=T XYZWriter=T (release=T 2.4.3)=T pbc="F F F"
H       13.47679000     -10.60468000      -7.67163000
O       13.61761000      -9.65553000      -7.56246000
H       13.42058000      -9.33507000      -8.48098000
H        9.97647000      -9.32982000      -8.69077000
O       10.86638000      -9.64600000      -8.85531000
H       11.31910000      -9.41274000      -8.01420000
