6
Properties=species:S:1:pos:R:3 frame=T 10=T |=T Written=T by=T MDAnalysis=T XYZWriter=T (release=T 2.4.3)=T pbc="F F F"
H       -2.40748000      -7.40461000     -12.90498000
O       -3.14367000      -7.74062000     -13.42474000
H       -2.80213000      -7.74127000     -14.31664000
H       -4.76828000      -6.91376000     -13.50300000
O       -5.58838000      -6.44744000     -13.30195000
H       -6.11583000      -6.69968000     -14.06589000
