6
Properties=species:S:1:pos:R:3 frame=T 41=T |=T Written=T by=T MDAnalysis=T XYZWriter=T (release=T 2.4.3)=T pbc="F F F"
H       -0.94858000      -2.32643000     -13.76063000
O       -1.88381000      -2.36593000     -13.45906000
H       -1.93438000      -3.23507000     -13.06554000
H       -2.65572000      -5.58912000     -12.24016000
O       -2.27012000      -4.94651000     -12.83580000
H       -2.75014000      -5.03007000     -13.65848000
