6
Properties=species:S:1:pos:R:3 frame=T 30=T |=T Written=T by=T MDAnalysis=T XYZWriter=T (release=T 2.4.3)=T pbc="F F F"
H      -12.67980000      -9.95962000      -0.54631000
O      -12.84053000     -10.51127000       0.26071000
H      -13.81201000     -10.61625000       0.30584000
H      -12.72088000     -13.38439000       1.15975000
O      -12.36009000     -12.67700000       1.75360000
H      -12.49404000     -11.86418000       1.23118000
