6
Properties=species:S:1:pos:R:3 frame=T 32=T |=T Written=T by=T MDAnalysis=T XYZWriter=T (release=T 2.4.3)=T pbc="F F F"
H      -11.77630000     -12.10342000      -1.13301000
O      -11.88555000     -12.52039000      -0.25603000
H      -11.92211000     -11.76112000       0.34656000
H      -12.93608000     -10.17970000       2.24345000
O      -12.23692000     -10.58005000       1.70651000
H      -11.86771000      -9.81367000       1.23650000
