6
Properties=species:S:1:pos:R:3 frame=T 16=T |=T Written=T by=T MDAnalysis=T XYZWriter=T (release=T 2.4.3)=T pbc="F F F"
H      -12.22673000      -4.09017000     -10.59445000
O      -12.03563000      -3.14903000     -10.46505000
H      -12.29579000      -2.98653000      -9.53147000
H      -12.52956000      -1.62208000     -11.15384000
O      -12.84331000      -0.72114000     -11.38982000
H      -13.75661000      -0.76427000     -11.11772000
