6
Properties=species:S:1:pos:R:3 frame=T 30=T |=T Written=T by=T MDAnalysis=T XYZWriter=T (release=T 2.4.3)=T pbc="F F F"
H       17.87130000       6.79696000       9.11623000
O       17.96457000       6.57882000       8.18872000
H       18.89073000       6.82570000       8.06481000
H       17.31619000       3.47789000       7.70802000
O       17.44436000       4.22046000       7.08442000
H       17.50862000       4.92821000       7.72816000
