6
Properties=species:S:1:pos:R:3 frame=T 10=T |=T Written=T by=T MDAnalysis=T XYZWriter=T (release=T 2.4.3)=T pbc="F F F"
H        3.03473000      -1.67500000     -17.15186000
O        3.21465000      -0.85511000     -17.69028000
H        2.50404000      -0.24463000     -17.41370000
H        5.11213000       0.93051000     -19.00484000
O        5.48058000       0.37974000     -18.27438000
H        4.68813000      -0.11025000     -17.97572000
