6
Properties=species:S:1:pos:R:3 frame=T 27=T |=T Written=T by=T MDAnalysis=T XYZWriter=T (release=T 2.4.3)=T pbc="F F F"
H        7.83564000      -8.10214000      14.47441000
O        8.43362000      -7.37939000      14.23657000
H        8.94424000      -7.74809000      13.47861000
H       11.11759000      -6.30181000      15.28504000
O       10.40579000      -5.75368000      14.94513000
H        9.69967000      -6.37429000      14.80189000
