6
Properties=species:S:1:pos:R:3 frame=T 45=T |=T Written=T by=T MDAnalysis=T XYZWriter=T (release=T 2.4.3)=T pbc="F F F"
H       -5.93740000       7.29759000      -8.73971000
O       -6.47212000       7.33138000      -9.56502000
H       -6.15391000       8.13380000      -9.97423000
H       -5.50253000       8.57990000     -11.82516000
O       -5.51081000       9.37576000     -11.28537000
H       -6.34148000       9.82840000     -11.53866000
