6
Properties=species:S:1:pos:R:3 frame=T 30=T |=T Written=T by=T MDAnalysis=T XYZWriter=T (release=T 2.4.3)=T pbc="F F F"
H       -7.65431000      -1.10678000       4.27246000
O       -8.29210000      -1.30617000       4.97625000
H       -7.70702000      -1.30236000       5.75437000
H      -10.07311000       1.13693000       5.24571000
O      -10.31607000       0.44816000       4.61193000
H       -9.54614000      -0.15962000       4.62244000
