6
Properties=species:S:1:pos:R:3 frame=T 10=T |=T Written=T by=T MDAnalysis=T XYZWriter=T (release=T 2.4.3)=T pbc="F F F"
H       15.27100000       5.30358000       6.93138000
O       15.63573000       4.62675000       7.51433000
H       15.77124000       5.07286000       8.34133000
H       13.54381000       7.16639000       5.88790000
O       14.14842000       6.43574000       5.84362000
H       14.99016000       6.82920000       5.59525000
