6
Properties=species:S:1:pos:R:3 frame=T 11=T |=T Written=T by=T MDAnalysis=T XYZWriter=T (release=T 2.4.3)=T pbc="F F F"
H       11.93456000      -7.66404000      13.47469000
O       12.38329000      -6.81310000      13.45601000
H       12.21290000      -6.52629000      12.51374000
H       10.92152000      -5.86153000      11.07095000
O       11.81614000      -5.51362000      11.20271000
H       11.68113000      -4.55055000      11.19304000
