6
Properties=species:S:1:pos:R:3 frame=T 15=T |=T Written=T by=T MDAnalysis=T XYZWriter=T (release=T 2.4.3)=T pbc="F F F"
H       -9.33693000      12.39048000       9.95028000
O       -9.53168000      12.19757000      10.88440000
H      -10.11376000      11.44044000      10.78177000
H       -8.07224000      12.36954000       8.27774000
O       -8.23471000      13.28294000       8.58388000
H       -7.49675000      13.45581000       9.17920000
