6
Properties=species:S:1:pos:R:3 frame=T 6=T |=T Written=T by=T MDAnalysis=T XYZWriter=T (release=T 2.4.3)=T pbc="F F F"
H        2.61954000     -13.57683000      12.21329000
O        2.03739000     -13.08875000      12.77559000
H        2.21032000     -13.47727000      13.63730000
H        3.01875000     -15.33999000      14.81496000
O        2.78229000     -14.46931000      15.15714000
H        3.50295000     -14.33194000      15.76541000
