6
Properties=species:S:1:pos:R:3 frame=T 34=T |=T Written=T by=T MDAnalysis=T XYZWriter=T (release=T 2.4.3)=T pbc="F F F"
H      -13.27476000      13.81442000       3.02219000
O      -12.62652000      14.24782000       3.61114000
H      -11.98025000      13.57877000       3.83400000
H      -10.25621000      16.01383000       4.12989000
O      -10.90004000      15.95109000       4.85339000
H      -11.71266000      15.69490000       4.39095000
