6
Properties=species:S:1:pos:R:3 frame=T 10=T |=T Written=T by=T MDAnalysis=T XYZWriter=T (release=T 2.4.3)=T pbc="F F F"
H        2.22367000      -9.14213000       8.37802000
O        2.02068000     -10.07240000       8.16788000
H        1.29465000     -10.37136000       8.77505000
H        3.69752000     -10.86245000       8.06170000
O        4.63172000     -10.98666000       8.23969000
H        5.06387000     -10.40870000       7.60118000
