6
Properties=species:S:1:pos:R:3 frame=T 3=T |=T Written=T by=T MDAnalysis=T XYZWriter=T (release=T 2.4.3)=T pbc="F F F"
H        9.63748000      15.65924000     -10.38088000
O       10.06318000      15.37127000     -11.19354000
H       11.00349000      15.26672000     -10.92184000
H        9.45539000      17.17920000     -11.59832000
O        9.71724000      18.08591000     -11.37940000
H        8.96809000      18.60583000     -11.67891000
