6
Properties=species:S:1:pos:R:3 frame=T 8=T |=T Written=T by=T MDAnalysis=T XYZWriter=T (release=T 2.4.3)=T pbc="F F F"
H      -10.11602000       7.25968000     -15.89242000
O      -10.82989000       7.69844000     -15.46863000
H      -11.15967000       8.32020000     -16.10895000
H       -8.71252000       8.14605000     -17.21518000
O       -8.99163000       7.31608000     -17.64599000
H       -8.95563000       6.63423000     -16.99831000
