6
Properties=species:S:1:pos:R:3 frame=T 4=T |=T Written=T by=T MDAnalysis=T XYZWriter=T (release=T 2.4.3)=T pbc="F F F"
H       11.68687000      -4.08763000      19.14104000
O       12.23115000      -3.86019000      18.38802000
H       12.89063000      -4.54993000      18.41273000
H       11.16350000      -6.62674000      17.58680000
O       10.64465000      -5.80930000      17.55414000
H       11.30116000      -5.11889000      17.78346000
