6
Properties=species:S:1:pos:R:3 frame=T 30=T |=T Written=T by=T MDAnalysis=T XYZWriter=T (release=T 2.4.3)=T pbc="F F F"
H       -6.32488000       5.02361000     -16.01935000
O       -6.20434000       4.13301000     -16.37560000
H       -5.32594000       3.89953000     -16.07639000
H       -8.08466000       4.55448000     -14.44637000
O       -8.59868000       3.75362000     -14.21083000
H       -9.48101000       4.05168000     -14.41672000
