6
Properties=species:S:1:pos:R:3 frame=T 12=T |=T Written=T by=T MDAnalysis=T XYZWriter=T (release=T 2.4.3)=T pbc="F F F"
H        3.04798000       4.31313000     -14.08401000
O        3.76526000       4.80370000     -13.66176000
H        3.51490000       5.73900000     -13.74472000
H        3.57795000       3.91595000     -12.02353000
O        3.61808000       2.96465000     -11.77804000
H        3.07094000       2.95256000     -10.98059000
