6
Properties=species:S:1:pos:R:3 frame=T 18=T |=T Written=T by=T MDAnalysis=T XYZWriter=T (release=T 2.4.3)=T pbc="F F F"
H      -10.23680000       1.88325000       1.78540000
O      -10.98741000       1.58280000       2.35473000
H      -10.95295000       0.61733000       2.28407000
H      -10.94467000      -1.99395000       1.92280000
O      -10.50720000      -1.15711000       2.14090000
H       -9.69094000      -1.23088000       1.61620000
