6
Properties=species:S:1:pos:R:3 frame=T 2=T |=T Written=T by=T MDAnalysis=T XYZWriter=T (release=T 2.4.3)=T pbc="F F F"
H       -0.77505000      -5.14122000     -15.52588000
O       -0.94222000      -4.72749000     -16.36496000
H       -0.40820000      -5.20010000     -16.99676000
H       -3.45940000      -6.99727000     -16.18740000
O       -3.38539000      -6.17163000     -16.69176000
H       -2.67145000      -5.69439000     -16.19961000
