6
Properties=species:S:1:pos:R:3 frame=T 38=T |=T Written=T by=T MDAnalysis=T XYZWriter=T (release=T 2.4.3)=T pbc="F F F"
H      -17.51253000      18.11290000      11.83791000
O      -16.61075000      17.87511000      11.66458000
H      -16.16250000      18.04988000      12.49470000
H      -14.18072000      15.69207000      11.58539000
O      -15.11149000      15.47568000      11.69865000
H      -15.55300000      16.32529000      11.50940000
