6
Properties=species:S:1:pos:R:3 frame=T 17=T |=T Written=T by=T MDAnalysis=T XYZWriter=T (release=T 2.4.3)=T pbc="F F F"
H       15.30191000      -1.71563000     -12.94268000
O       16.02861000      -1.75987000     -12.32670000
H       16.70354000      -1.27141000     -12.78593000
H       13.02371000      -1.92916000     -13.36643000
O       13.51902000      -1.12249000     -13.12990000
H       13.36528000      -0.54548000     -13.89283000
