6
Properties=species:S:1:pos:R:3 frame=T 14=T |=T Written=T by=T MDAnalysis=T XYZWriter=T (release=T 2.4.3)=T pbc="F F F"
H        1.68844000      17.67409000      11.92437000
O        1.03437000      16.98916000      11.61957000
H        1.52388000      16.14919000      11.78334000
H        0.15196000      16.66360000      10.14389000
O       -0.59692000      16.86055000       9.54082000
H       -1.10609000      16.04415000       9.65582000
