6
Properties=species:S:1:pos:R:3 frame=T 15=T |=T Written=T by=T MDAnalysis=T XYZWriter=T (release=T 2.4.3)=T pbc="F F F"
H       -5.25505000      -1.22265000       9.78436000
O       -5.05942000      -0.53651000       9.09627000
H       -4.93146000      -1.08262000       8.31163000
H       -8.09157000       0.93594000       9.30958000
O       -7.21470000       1.01806000       8.92295000
H       -6.83158000       0.17466000       9.17169000
