6
Properties=species:S:1:pos:R:3 frame=T 46=T |=T Written=T by=T MDAnalysis=T XYZWriter=T (release=T 2.4.3)=T pbc="F F F"
H        7.08923000      12.49051000     -12.94920000
O        7.76426000      13.14295000     -13.23029000
H        7.62450000      13.24519000     -14.16769000
H        5.78307000      14.41704000     -14.42256000
O        6.42986000      14.73752000     -15.04556000
H        5.88750000      14.86854000     -15.83183000
