6
Properties=species:S:1:pos:R:3 frame=T 36=T |=T Written=T by=T MDAnalysis=T XYZWriter=T (release=T 2.4.3)=T pbc="F F F"
H       10.96820000     -10.87470000       5.69116000
O       11.33988000     -10.04907000       5.98209000
H       11.68411000      -9.61586000       5.21456000
H       12.96568000      -9.92493000       6.73572000
O       13.57467000      -9.47604000       7.34598000
H       14.45120000      -9.66257000       7.00880000
