6
Properties=species:S:1:pos:R:3 frame=T 34=T |=T Written=T by=T MDAnalysis=T XYZWriter=T (release=T 2.4.3)=T pbc="F F F"
H       -8.91287000     -14.04357000      -6.07611000
O       -9.26026000     -14.81286000      -5.58856000
H       -9.56588000     -14.40934000      -4.74017000
H      -10.11923000     -17.16314000      -6.83814000
O       -9.93004000     -16.52430000      -7.52143000
H       -9.72945000     -15.74087000      -6.98581000
