6
Properties=species:S:1:pos:R:3 frame=T 33=T |=T Written=T by=T MDAnalysis=T XYZWriter=T (release=T 2.4.3)=T pbc="F F F"
H       13.28617000      15.51811000       8.00043000
O       14.08039000      15.67494000       7.50220000
H       13.92950000      15.12627000       6.71593000
H       13.64841000      15.21658000       4.64842000
O       13.12011000      14.64425000       5.23410000
H       12.81835000      13.98573000       4.59933000
