6
Properties=species:S:1:pos:R:3 frame=T 13=T |=T Written=T by=T MDAnalysis=T XYZWriter=T (release=T 2.4.3)=T pbc="F F F"
H        9.18606000      -3.12435000      18.16194000
O        8.27829000      -2.91644000      18.41374000
H        8.23469000      -1.97480000      18.21711000
H        8.02146000      -3.97113000      16.70460000
O        8.63837000      -4.28821000      16.02200000
H        8.11176000      -4.87174000      15.43465000
