6
Properties=species:S:1:pos:R:3 frame=T 27=T |=T Written=T by=T MDAnalysis=T XYZWriter=T (release=T 2.4.3)=T pbc="F F F"
H       10.10320000      11.49506000      14.34606000
O        9.19607000      11.23485000      14.16128000
H        8.98578000      10.52234000      14.79962000
H        7.14322000      10.19117000      12.24171000
O        8.03353000      10.37285000      11.93797000
H        8.53831000      10.38274000      12.76178000
