6
Properties=species:S:1:pos:R:3 frame=T 34=T |=T Written=T by=T MDAnalysis=T XYZWriter=T (release=T 2.4.3)=T pbc="F F F"
H       10.90489000      -8.63299000     -10.69467000
O       10.06056000      -8.38265000     -11.01801000
H        9.49249000      -8.31713000     -10.24397000
H        8.46662000      -9.64922000      -8.51986000
O        8.34386000      -8.74640000      -8.86286000
H        8.51867000      -8.22822000      -8.05319000
