6
Properties=species:S:1:pos:R:3 frame=T 41=T |=T Written=T by=T MDAnalysis=T XYZWriter=T (release=T 2.4.3)=T pbc="F F F"
H       12.50776000      -0.57638000      12.13315000
O       11.93940000      -0.64145000      12.91782000
H       12.02708000       0.24332000      13.28290000
H       13.90813000       0.21974000      10.36428000
O       12.94169000       0.12566000      10.42911000
H       12.76033000      -0.43782000       9.66147000
