6
Properties=species:S:1:pos:R:3 frame=T 43=T |=T Written=T by=T MDAnalysis=T XYZWriter=T (release=T 2.4.3)=T pbc="F F F"
H        7.85465000      11.71828000      -9.63828000
O        8.14724000      12.29745000     -10.38298000
H        7.86858000      11.72098000     -11.11378000
H        5.33045000      13.75830000     -11.23350000
O        6.19866000      14.19927000     -11.16167000
H        6.72996000      13.55030000     -10.68045000
