6
Properties=species:S:1:pos:R:3 frame=T 44=T |=T Written=T by=T MDAnalysis=T XYZWriter=T (release=T 2.4.3)=T pbc="F F F"
H       -9.68639000       1.77670000     -13.09156000
O      -10.54980000       1.85033000     -13.50987000
H      -11.20462000       1.39911000     -12.94335000
H       -7.34233000       1.61161000     -12.72255000
O       -8.16734000       1.88201000     -12.25784000
H       -8.01475000       2.81362000     -12.06835000
