6
Properties=species:S:1:pos:R:3 frame=T 27=T |=T Written=T by=T MDAnalysis=T XYZWriter=T (release=T 2.4.3)=T pbc="F F F"
H       15.14956000      15.58870000     -12.31097000
O       14.25231000      15.81997000     -12.23962000
H       14.02584000      16.30143000     -13.04043000
H       14.80267000      16.80407000     -10.72617000
O       15.36253000      17.02100000      -9.97119000
H       14.80887000      17.55390000      -9.39577000
