6
Properties=species:S:1:pos:R:3 frame=T 48=T |=T Written=T by=T MDAnalysis=T XYZWriter=T (release=T 2.4.3)=T pbc="F F F"
H       -9.81787000      -3.72384000       2.70083000
O      -10.40411000      -2.97984000       2.82933000
H      -11.26344000      -3.41956000       2.93351000
H      -12.27542000      -5.24228000       2.50272000
O      -12.75166000      -4.55115000       2.05644000
H      -13.10109000      -4.98133000       1.27551000
