6
Properties=species:S:1:pos:R:3 frame=T 35=T |=T Written=T by=T MDAnalysis=T XYZWriter=T (release=T 2.4.3)=T pbc="F F F"
H       17.04804000       8.70767000      -7.73501000
O       16.62698000       7.87347000      -7.52770000
H       17.19689000       7.21836000      -7.92023000
H       16.77545000      10.78253000      -8.86959000
O       17.09175000      10.54873000      -7.98216000
H       18.02553000      10.78786000      -8.09449000
