6
Properties=species:S:1:pos:R:3 frame=T 53=T |=T Written=T by=T MDAnalysis=T XYZWriter=T (release=T 2.4.3)=T pbc="F F F"
H       -3.46395000      13.49942000     -16.68381000
O       -4.28270000      13.21199000     -17.13719000
H       -4.95002000      13.76973000     -16.78695000
H       -6.99747000      12.54721000     -15.15480000
O       -6.48009000      13.35052000     -15.22846000
H       -6.72403000      13.69948000     -16.12179000
