6
Properties=species:S:1:pos:R:3 frame=T 34=T |=T Written=T by=T MDAnalysis=T XYZWriter=T (release=T 2.4.3)=T pbc="F F F"
H       -3.58438000      -7.39205000       3.28060000
O       -3.05311000      -8.05567000       3.76952000
H       -3.43016000      -8.16479000       4.66473000
H       -3.12705000      -9.79512000       3.21082000
O       -3.58370000     -10.51024000       2.78008000
H       -2.89640000     -11.19695000       2.77598000
