6
Properties=species:S:1:pos:R:3 frame=T 7=T |=T Written=T by=T MDAnalysis=T XYZWriter=T (release=T 2.4.3)=T pbc="F F F"
H       -4.56962000       3.08007000      -7.62787000
O       -4.90389000       2.95643000      -6.72113000
H       -5.86543000       3.20280000      -6.70557000
H       -4.97995000       0.99158000      -7.01480000
O       -4.86032000       0.21449000      -7.59717000
H       -4.02333000      -0.08656000      -7.28678000
