6
Properties=species:S:1:pos:R:3 frame=T 20=T |=T Written=T by=T MDAnalysis=T XYZWriter=T (release=T 2.4.3)=T pbc="F F F"
H      -15.97743000     -14.40066000       1.67968000
O      -16.81845000     -14.79940000       1.90322000
H      -16.81787000     -15.61041000       1.36931000
H      -15.95881000     -17.49760000       2.00025000
O      -16.46708000     -17.39407000       1.16674000
H      -17.10711000     -18.15351000       1.23379000
