6
Properties=species:S:1:pos:R:3 frame=T 19=T |=T Written=T by=T MDAnalysis=T XYZWriter=T (release=T 2.4.3)=T pbc="F F F"
H       -4.14341000       4.34090000      18.71082000
O       -3.41093000       4.21779000      18.08674000
H       -3.78686000       4.10771000      17.19674000
H       -4.17763000       0.90978000      18.96887000
O       -3.45187000       1.37622000      18.54858000
H       -3.93215000       2.19095000      18.31294000
