6
Properties=species:S:1:pos:R:3 frame=T 49=T |=T Written=T by=T MDAnalysis=T XYZWriter=T (release=T 2.4.3)=T pbc="F F F"
H       -7.50083000      12.51757000       5.49381000
O       -8.30587000      13.03108000       5.34387000
H       -8.16461000      13.52137000       4.51276000
H       -7.45219000      15.15988000       2.71110000
O       -7.77946000      14.28389000       2.81658000
H       -6.98653000      13.73487000       2.82807000
