6
Properties=species:S:1:pos:R:3 frame=T 17=T |=T Written=T by=T MDAnalysis=T XYZWriter=T (release=T 2.4.3)=T pbc="F F F"
H      -16.21267000       3.04779000      14.08879000
O      -16.22083000       2.10098000      13.87347000
H      -16.48021000       2.11009000      12.95045000
H      -17.78752000       1.15743000      14.42522000
O      -18.35082000       0.42131000      14.61262000
H      -19.06551000       0.76983000      15.15778000
