6
Properties=species:S:1:pos:R:3 frame=T 6=T |=T Written=T by=T MDAnalysis=T XYZWriter=T (release=T 2.4.3)=T pbc="F F F"
H      -17.58521000      -0.07629000      -7.48603000
O      -18.42439000      -0.58161000      -7.63032000
H      -18.22433000      -1.39203000      -7.11608000
H      -17.53418000      -2.38644000     -10.24450000
O      -17.38158000      -1.46238000     -10.21138000
H      -17.69872000      -1.13874000      -9.37914000
