6
Properties=species:S:1:pos:R:3 frame=T 46=T |=T Written=T by=T MDAnalysis=T XYZWriter=T (release=T 2.4.3)=T pbc="F F F"
H       -6.44367000     -10.40345000     -11.19920000
O       -7.19761000      -9.83222000     -11.47582000
H       -7.56259000     -10.30597000     -12.24930000
H       -4.75621000     -11.56284000     -10.17840000
O       -5.19110000     -11.56993000     -11.03827000
H       -5.02307000     -12.45077000     -11.39427000
