6
Properties=species:S:1:pos:R:3 frame=T 50=T |=T Written=T by=T MDAnalysis=T XYZWriter=T (release=T 2.4.3)=T pbc="F F F"
H        0.41130000       8.27379000     -15.57607000
O        1.14370000       8.88948000     -15.54364000
H        0.78643000       9.66158000     -15.14327000
H        2.60375000       8.66934000     -14.54100000
O        3.34688000       8.54778000     -13.94440000
H        2.98997000       8.77142000     -13.06214000
