6
Properties=species:S:1:pos:R:3 frame=T 54=T |=T Written=T by=T MDAnalysis=T XYZWriter=T (release=T 2.4.3)=T pbc="F F F"
H       16.98446000      -1.59484000     -13.37301000
O       16.55364000      -2.25181000     -12.80418000
H       16.65618000      -1.85703000     -11.93126000
H       16.39896000      -0.92678000      -9.96520000
O       16.82420000      -0.50765000     -10.72966000
H       17.10430000       0.30494000     -10.31912000
