6
Properties=species:S:1:pos:R:3 frame=T 41=T |=T Written=T by=T MDAnalysis=T XYZWriter=T (release=T 2.4.3)=T pbc="F F F"
H        2.84952000      17.52049000       4.56828000
O        2.82754000      16.84121000       5.27660000
H        2.23100000      16.17708000       4.94929000
H        5.05198000      14.98137000       6.14250000
O        4.56090000      15.52315000       6.76893000
H        3.93979000      16.04249000       6.24721000
