6
Properties=species:S:1:pos:R:3 frame=T 54=T |=T Written=T by=T MDAnalysis=T XYZWriter=T (release=T 2.4.3)=T pbc="F F F"
H       14.88029000       7.77497000      14.11829000
O       14.44484000       6.90122000      14.12939000
H       13.54004000       7.11010000      13.86151000
H       13.78842000       6.11880000      17.09356000
O       14.69238000       6.28496000      16.86282000
H       14.65383000       6.28653000      15.90654000
