6
Properties=species:S:1:pos:R:3 frame=T 47=T |=T Written=T by=T MDAnalysis=T XYZWriter=T (release=T 2.4.3)=T pbc="F F F"
H       14.93389000     -17.49858000      -0.13409000
O       14.99567000     -16.54836000      -0.26898000
H       15.60172000     -16.45825000      -1.00875000
H       15.40026000     -15.61618000       2.56076000
O       14.86719000     -15.02617000       2.03141000
H       14.96920000     -15.44150000       1.16199000
