6
Properties=species:S:1:pos:R:3 frame=T 2=T |=T Written=T by=T MDAnalysis=T XYZWriter=T (release=T 2.4.3)=T pbc="F F F"
H        7.12340000      -3.57374000       4.62994000
O        6.47660000      -2.93521000       4.97466000
H        6.10401000      -2.68844000       4.10011000
H        4.84390000      -3.62089000       5.57350000
O        4.21847000      -4.35377000       5.52597000
H        3.81675000      -4.34200000       6.41023000
