6
Properties=species:S:1:pos:R:3 frame=T 33=T |=T Written=T by=T MDAnalysis=T XYZWriter=T (release=T 2.4.3)=T pbc="F F F"
H        2.02226000      15.21743000      -2.84001000
O        2.36754000      15.89657000      -2.27825000
H        3.33211000      15.67774000      -2.17689000
H        3.70701000      18.59763000      -3.21860000
O        2.79054000      18.36307000      -3.42032000
H        2.70071000      17.46020000      -3.12155000
