6
Properties=species:S:1:pos:R:3 frame=T 20=T |=T Written=T by=T MDAnalysis=T XYZWriter=T (release=T 2.4.3)=T pbc="F F F"
H       -2.57348000       2.25243000      15.82453000
O       -2.19821000       1.70873000      15.10670000
H       -2.24627000       2.28632000      14.36207000
H       -2.85458000       0.08238000      14.61437000
O       -3.35440000      -0.63325000      14.28293000
H       -2.87393000      -0.95245000      13.52997000
