6
Properties=species:S:1:pos:R:3 frame=T 1=T |=T Written=T by=T MDAnalysis=T XYZWriter=T (release=T 2.4.3)=T pbc="F F F"
H       -6.24873000      -7.25984000       3.80702000
O       -7.10620000      -6.95720000       4.16294000
H       -7.76312000      -7.41099000       3.64251000
H       -8.00937000      -7.77586000       5.56523000
O       -8.66900000      -8.28469000       6.07628000
H       -9.19706000      -7.57867000       6.48634000
