6
Properties=species:S:1:pos:R:3 frame=T 10=T |=T Written=T by=T MDAnalysis=T XYZWriter=T (release=T 2.4.3)=T pbc="F F F"
H       -7.06436000      -5.77271000      -4.23238000
O       -7.10879000      -6.02285000      -5.14849000
H       -7.07898000      -6.97929000      -5.13307000
H       -6.03230000      -4.93919000      -2.37725000
O       -6.76891000      -4.65160000      -2.94900000
H       -7.51099000      -4.69935000      -2.34553000
