6
Properties=species:S:1:pos:R:3 frame=T 52=T |=T Written=T by=T MDAnalysis=T XYZWriter=T (release=T 2.4.3)=T pbc="F F F"
H        9.82318000      -1.49434000       7.15428000
O       10.34351000      -1.95280000       6.46799000
H       10.36904000      -1.30705000       5.75045000
H        8.52825000      -2.51678000       5.65567000
O        7.57725000      -2.40913000       5.43883000
H        7.14445000      -3.21585000       5.80583000
