6
Properties=species:S:1:pos:R:3 frame=T 7=T |=T Written=T by=T MDAnalysis=T XYZWriter=T (release=T 2.4.3)=T pbc="F F F"
H        1.94066000      13.96715000      -8.05303000
O        1.29243000      14.70309000      -8.01201000
H        1.72395000      15.40778000      -7.48810000
H        1.51979000      17.03105000      -5.96804000
O        2.22570000      16.44799000      -6.25009000
H        2.98708000      17.01323000      -6.42035000
