6
Properties=species:S:1:pos:R:3 frame=T 5=T |=T Written=T by=T MDAnalysis=T XYZWriter=T (release=T 2.4.3)=T pbc="F F F"
H        7.80949000      -0.70211000      -5.10205000
O        8.39536000      -1.27906000      -5.63626000
H        9.22144000      -0.78940000      -5.72166000
H        7.79206000      -2.66836000      -4.67131000
O        7.04973000      -3.16526000      -4.29178000
H        7.15270000      -3.12197000      -3.33722000
