6
Properties=species:S:1:pos:R:3 frame=T 52=T |=T Written=T by=T MDAnalysis=T XYZWriter=T (release=T 2.4.3)=T pbc="F F F"
H       -4.14270000      -4.08459000      17.03988000
O       -4.07499000      -3.99071000      17.99912000
H       -3.17313000      -4.25112000      18.18310000
H       -6.53255000      -2.87407000      17.67879000
O       -7.13796000      -3.45224000      18.13413000
H       -7.19355000      -4.24154000      17.55824000
