6
Properties=species:S:1:pos:R:3 frame=T 42=T |=T Written=T by=T MDAnalysis=T XYZWriter=T (release=T 2.4.3)=T pbc="F F F"
H        4.02353000       2.94430000      17.02806000
O        3.84875000       2.10197000      17.46907000
H        2.96404000       1.94960000      17.18072000
H        5.88356000       1.82485000      19.46732000
O        6.68583000       1.62859000      18.99178000
H        6.38395000       1.69522000      18.08279000
