6
Properties=species:S:1:pos:R:3 frame=T 12=T |=T Written=T by=T MDAnalysis=T XYZWriter=T (release=T 2.4.3)=T pbc="F F F"
H        4.79740000       3.99908000      14.24624000
O        5.22514000       4.87723000      14.26475000
H        5.78902000       4.87318000      13.46358000
H        6.47172000       4.11840000      11.64847000
O        7.10926000       4.77970000      11.99385000
H        7.02140000       5.49388000      11.32584000
