6
Properties=species:S:1:pos:R:3 frame=T 30=T |=T Written=T by=T MDAnalysis=T XYZWriter=T (release=T 2.4.3)=T pbc="F F F"
H       10.85672000       5.18405000      12.75036000
O       10.70652000       5.90886000      12.13900000
H       10.08678000       5.50342000      11.50846000
H       10.41988000       7.60735000      12.63483000
O       10.20193000       8.49638000      12.89860000
H        9.22740000       8.47863000      12.89126000
