6
Properties=species:S:1:pos:R:3 frame=T 37=T |=T Written=T by=T MDAnalysis=T XYZWriter=T (release=T 2.4.3)=T pbc="F F F"
H        2.90036000     -15.00998000       7.09315000
O        2.73067000     -14.90415000       8.01811000
H        3.22710000     -14.08376000       8.18148000
H       -0.13040000     -15.54097000       7.83170000
O        0.07281000     -15.28617000       8.71413000
H        1.03547000     -15.25693000       8.66277000
