6
Properties=species:S:1:pos:R:3 frame=T 50=T |=T Written=T by=T MDAnalysis=T XYZWriter=T (release=T 2.4.3)=T pbc="F F F"
H      -12.48799000      -0.88860000       4.05222000
O      -12.84586000      -1.53757000       3.44862000
H      -12.87730000      -2.34012000       4.00540000
H      -11.93247000      -3.49306000       5.74439000
O      -12.10810000      -3.72515000       4.82289000
H      -12.14281000      -4.69957000       4.83229000
