6
Properties=species:S:1:pos:R:3 frame=T 7=T |=T Written=T by=T MDAnalysis=T XYZWriter=T (release=T 2.4.3)=T pbc="F F F"
H       17.87992000      -8.87610000     -13.48639000
O       17.88717000      -8.10939000     -14.04041000
H       17.92199000      -7.33404000     -13.44408000
H       15.71201000      -5.83433000     -14.47832000
O       16.17405000      -6.16744000     -15.22940000
H       16.66819000      -6.90540000     -14.91389000
