6
Properties=species:S:1:pos:R:3 frame=T 39=T |=T Written=T by=T MDAnalysis=T XYZWriter=T (release=T 2.4.3)=T pbc="F F F"
H        5.72617000      -2.71883000      15.05332000
O        5.10572000      -3.43604000      14.82811000
H        4.72782000      -3.70575000      15.68827000
H        2.89663000      -5.23628000      14.80653000
O        2.82066000      -4.76646000      15.66033000
H        3.56488000      -5.11670000      16.19065000
