6
Properties=species:S:1:pos:R:3 frame=T 49=T |=T Written=T by=T MDAnalysis=T XYZWriter=T (release=T 2.4.3)=T pbc="F F F"
H       14.37792000     -14.91445000       7.71387000
O       14.60973000     -14.00488000       7.67329000
H       15.55671000     -13.98741000       7.82603000
H       14.87102000     -12.92907000       4.45075000
O       15.19025000     -12.73129000       5.34436000
H       14.58779000     -13.19218000       5.94649000
