6
Properties=species:S:1:pos:R:3 frame=T 45=T |=T Written=T by=T MDAnalysis=T XYZWriter=T (release=T 2.4.3)=T pbc="F F F"
H       -4.20217000       5.16958000      -1.89182000
O       -4.41489000       4.96477000      -0.99588000
H       -3.58278000       5.16800000      -0.58758000
H       -5.45618000       3.47888000      -1.06872000
O       -5.93968000       2.72168000      -0.73038000
H       -6.55402000       3.11468000      -0.08758000
