6
Properties=species:S:1:pos:R:3 frame=T 30=T |=T Written=T by=T MDAnalysis=T XYZWriter=T (release=T 2.4.3)=T pbc="F F F"
H       -1.76279000      18.32975000     -11.39108000
O       -2.11454000      19.03292000     -11.93995000
H       -1.81472000      18.79626000     -12.83114000
H       -2.01523000      17.19878000     -14.11371000
O       -2.17152000      18.03700000     -14.56154000
H       -1.85259000      17.89414000     -15.45936000
