6
Properties=species:S:1:pos:R:3 frame=T 25=T |=T Written=T by=T MDAnalysis=T XYZWriter=T (release=T 2.4.3)=T pbc="F F F"
H        6.16359000       1.68352000      -5.19004000
O        5.68220000       1.71968000      -6.00900000
H        5.20441000       0.84372000      -6.02642000
H        5.90566000       1.62208000      -3.08763000
O        6.75432000       1.38638000      -3.51923000
H        7.16233000       0.80703000      -2.88708000
