6
Properties=species:S:1:pos:R:3 frame=T 26=T |=T Written=T by=T MDAnalysis=T XYZWriter=T (release=T 2.4.3)=T pbc="F F F"
H       -6.02053000      14.83035000      16.49311000
O       -5.16616000      14.92513000      16.04639000
H       -5.30927000      15.74810000      15.49418000
H       -7.77269000      14.65681000      18.07269000
O       -7.53668000      14.35732000      17.17789000
H       -7.60981000      13.40975000      17.26077000
