6
Properties=species:S:1:pos:R:3 frame=T 50=T |=T Written=T by=T MDAnalysis=T XYZWriter=T (release=T 2.4.3)=T pbc="F F F"
H       16.94692000      13.04642000      -0.11560000
O       17.40626000      12.22036000      -0.29913000
H       17.61028000      11.89857000       0.61042000
H       15.54940000      13.90053000      -2.00736000
O       15.02627000      13.56909000      -1.27510000
H       15.11751000      12.63357000      -1.35831000
