6
Properties=species:S:1:pos:R:3 frame=T 12=T |=T Written=T by=T MDAnalysis=T XYZWriter=T (release=T 2.4.3)=T pbc="F F F"
H       -6.53275000      15.38102000      -6.21022000
O       -7.12504000      15.57516000      -5.49729000
H       -7.62711000      16.30231000      -5.90282000
H       -6.12993000      17.14093000      -3.03402000
O       -6.54600000      16.27229000      -3.01518000
H       -6.80627000      16.12355000      -3.93096000
