6
Properties=species:S:1:pos:R:3 frame=T 27=T |=T Written=T by=T MDAnalysis=T XYZWriter=T (release=T 2.4.3)=T pbc="F F F"
H       17.08668000     -10.78457000       2.39469000
O       17.73294000     -10.68286000       3.12543000
H       18.51525000     -10.38724000       2.64094000
H       18.03026000     -12.42137000       3.49910000
O       18.47838000     -13.25037000       3.73186000
H       17.96391000     -13.88915000       3.23646000
