6
Properties=species:S:1:pos:R:3 frame=T 23=T |=T Written=T by=T MDAnalysis=T XYZWriter=T (release=T 2.4.3)=T pbc="F F F"
H       11.34150000       8.30944000      16.90692000
O       11.63524000       8.20721000      16.00469000
H       12.43592000       8.73675000      15.93560000
H        9.50655000       6.09801000      16.41921000
O       10.29647000       5.81317000      15.88189000
H       10.99795000       6.48510000      16.06331000
