6
Properties=species:S:1:pos:R:3 frame=T 5=T |=T Written=T by=T MDAnalysis=T XYZWriter=T (release=T 2.4.3)=T pbc="F F F"
H       -0.33701000      -7.08247000      13.18973000
O       -0.19465000      -7.29365000      12.25941000
H       -0.27417000      -6.42198000      11.82312000
H       -1.01125000      -7.25627000      15.65773000
O       -0.28739000      -7.24924000      14.97371000
H       -0.05062000      -6.32283000      15.00480000
