6
Properties=species:S:1:pos:R:3 frame=T 52=T |=T Written=T by=T MDAnalysis=T XYZWriter=T (release=T 2.4.3)=T pbc="F F F"
H       14.85456000     -14.53610000     -10.50404000
O       13.88281000     -14.55165000     -10.45491000
H       13.66452000     -13.96193000      -9.71764000
H       16.02155000     -16.13444000     -11.61802000
O       16.31606000     -15.23191000     -11.42675000
H       16.22716000     -14.76300000     -12.28936000
