6
Properties=species:S:1:pos:R:3 frame=T 37=T |=T Written=T by=T MDAnalysis=T XYZWriter=T (release=T 2.4.3)=T pbc="F F F"
H        6.73910000      14.94784000     -17.95818000
O        6.96322000      14.01381000     -17.96273000
H        7.66465000      13.98874000     -17.30682000
H        5.97659000      16.60224000     -18.81711000
O        6.28189000      16.78304000     -17.89530000
H        5.58456000      17.31467000     -17.51629000
