6
Properties=species:S:1:pos:R:3 frame=T 50=T |=T Written=T by=T MDAnalysis=T XYZWriter=T (release=T 2.4.3)=T pbc="F F F"
H       13.47734000     -11.43988000      -9.82068000
O       14.05110000     -12.20672000      -9.92510000
H       13.52288000     -12.91904000     -10.33078000
H       11.73295000     -10.59395000      -8.94532000
O       12.03107000     -10.40958000      -9.84455000
H       11.92494000      -9.42267000      -9.96495000
