6
Properties=species:S:1:pos:R:3 frame=T 24=T |=T Written=T by=T MDAnalysis=T XYZWriter=T (release=T 2.4.3)=T pbc="F F F"
H       -8.65488000      17.71709000       4.74537000
O       -8.47565000      17.92476000       5.67294000
H       -7.82031000      17.25245000       5.97158000
H      -10.37825000      17.59788000       3.56273000
O       -9.56208000      17.90529000       3.11886000
H       -9.81596000      18.80079000       2.94369000
