6
Properties=species:S:1:pos:R:3 frame=T 35=T |=T Written=T by=T MDAnalysis=T XYZWriter=T (release=T 2.4.3)=T pbc="F F F"
H        9.68582000      11.10663000       3.32419000
O        9.60838000      10.28147000       3.85973000
H        9.12273000      10.59323000       4.63732000
H       11.30011000       9.92303000       3.75154000
O       12.25312000       9.80777000       3.96279000
H       12.34442000       8.86034000       4.14079000
