6
Properties=species:S:1:pos:R:3 frame=T 36=T |=T Written=T by=T MDAnalysis=T XYZWriter=T (release=T 2.4.3)=T pbc="F F F"
H       -6.07713000      11.59268000      -4.42686000
O       -5.47275000      12.03609000      -3.81776000
H       -4.64380000      11.61760000      -4.03210000
H       -5.27484000      11.91980000      -1.95312000
O       -4.82201000      12.16768000      -1.16200000
H       -4.77803000      13.10292000      -1.26900000
