6
Properties=species:S:1:pos:R:3 frame=T 44=T |=T Written=T by=T MDAnalysis=T XYZWriter=T (release=T 2.4.3)=T pbc="F F F"
H       17.14890000     -14.10532000      16.48153000
O       16.79184000     -13.20667000      16.45154000
H       16.48703000     -13.12927000      15.55342000
H       15.48734000     -12.48717000      13.56122000
O       15.13074000     -12.20757000      14.41782000
H       14.40114000     -12.83466000      14.48717000
