6
Properties=species:S:1:pos:R:3 frame=T 9=T |=T Written=T by=T MDAnalysis=T XYZWriter=T (release=T 2.4.3)=T pbc="F F F"
H       15.76890000      -6.36135000      16.98928000
O       15.50998000      -6.02017000      16.11961000
H       14.69469000      -6.50253000      15.85802000
H       16.99734000      -3.51636000      17.45250000
O       16.36802000      -3.50535000      16.69633000
H       16.20995000      -4.43140000      16.49259000
