6
Properties=species:S:1:pos:R:3 frame=T 34=T |=T Written=T by=T MDAnalysis=T XYZWriter=T (release=T 2.4.3)=T pbc="F F F"
H       11.49678000     -13.90256000      -8.13073000
O       11.00215000     -13.11901000      -7.86980000
H       11.70155000     -12.57889000      -7.49375000
H       13.14678000     -15.06961000      -7.47740000
O       12.77720000     -15.40254000      -8.30950000
H       12.67499000     -16.33589000      -8.14156000
