6
Properties=species:S:1:pos:R:3 frame=T 21=T |=T Written=T by=T MDAnalysis=T XYZWriter=T (release=T 2.4.3)=T pbc="F F F"
H      -10.48454000      14.01768000      18.78150000
O       -9.70284000      13.60635000      18.37309000
H       -9.19691000      14.35658000      17.99603000
H      -10.27143000      12.47367000      17.02941000
O      -10.67177000      11.99693000      16.29986000
H      -10.35726000      11.11007000      16.49979000
