6
Properties=species:S:1:pos:R:3 frame=T 20=T |=T Written=T by=T MDAnalysis=T XYZWriter=T (release=T 2.4.3)=T pbc="F F F"
H      -18.23545000     -14.36045000      -5.51614000
O      -18.42830000     -14.40635000      -6.46664000
H      -18.23083000     -13.50315000      -6.74860000
H      -17.71430000     -11.82755000      -7.87822000
O      -18.31870000     -11.55701000      -7.18767000
H      -19.10036000     -11.29347000      -7.71138000
