6
Properties=species:S:1:pos:R:3 frame=T 0=T |=T Written=T by=T MDAnalysis=T XYZWriter=T (release=T 2.4.3)=T pbc="F F F"
H       -3.91999000      12.00662000      -1.07994000
O       -4.41557000      11.23312000      -1.31754000
H       -4.15961000      11.11467000      -2.22728000
H       -5.81420000       8.77501000      -2.29609000
O       -5.42364000       8.65606000      -1.40741000
H       -5.40892000       9.55638000      -1.06016000
