6
Properties=species:S:1:pos:R:3 frame=T 33=T |=T Written=T by=T MDAnalysis=T XYZWriter=T (release=T 2.4.3)=T pbc="F F F"
H        5.22201000       0.25290000      -6.73263000
O        4.55275000      -0.34078000      -7.10893000
H        5.04890000      -1.16270000      -7.35533000
H        4.08816000      -3.13112000      -7.92299000
O        5.02972000      -2.92113000      -8.13094000
H        4.89740000      -2.50543000      -8.98695000
