6
Properties=species:S:1:pos:R:3 frame=T 28=T |=T Written=T by=T MDAnalysis=T XYZWriter=T (release=T 2.4.3)=T pbc="F F F"
H       17.77344000     -13.91991000      10.84524000
O       17.73282000     -14.49680000      11.63181000
H       16.93117000     -15.01403000      11.48756000
H       18.24451000     -12.16724000       9.49298000
O       17.68087000     -12.93879000       9.31983000
H       17.98854000     -13.25354000       8.45491000
