6
Properties=species:S:1:pos:R:3 frame=T 36=T |=T Written=T by=T MDAnalysis=T XYZWriter=T (release=T 2.4.3)=T pbc="F F F"
H      -12.38354000       0.51572000      -6.91399000
O      -13.27552000       0.67773000      -7.17583000
H      -13.34679000       1.66233000      -7.16290000
H      -13.16955000       2.56999000      -8.99656000
O      -13.71638000       3.24573000      -8.57118000
H      -14.53661000       3.24738000      -9.06249000
