6
Properties=species:S:1:pos:R:3 frame=T 9=T |=T Written=T by=T MDAnalysis=T XYZWriter=T (release=T 2.4.3)=T pbc="F F F"
H        4.36398000       9.14562000       2.20885000
O        4.35716000       9.94648000       2.72010000
H        5.16690000      10.40756000       2.36423000
H        6.55989000      12.21120000       1.74286000
O        6.59279000      11.44759000       2.32537000
H        6.48677000      11.83718000       3.20082000
