6
Properties=species:S:1:pos:R:3 frame=T 20=T |=T Written=T by=T MDAnalysis=T XYZWriter=T (release=T 2.4.3)=T pbc="F F F"
H        7.81978000     -15.50727000     -14.35866000
O        8.55603000     -15.03105000     -14.78684000
H        9.01465000     -14.70916000     -13.98924000
H        6.98699000     -16.58808000     -16.00203000
O        6.14501000     -16.12991000     -16.07068000
H        6.38696000     -15.33601000     -16.56479000
