6
Properties=species:S:1:pos:R:3 frame=T 12=T |=T Written=T by=T MDAnalysis=T XYZWriter=T (release=T 2.4.3)=T pbc="F F F"
H      -18.30043000       4.66409000      17.41003000
O      -19.10498000       4.16026000      17.56762000
H      -19.37782000       3.78066000      16.72609000
H      -16.90001000       5.98930000      16.39224000
O      -16.99725000       5.86408000      17.36146000
H      -16.88400000       6.69908000      17.82875000
