6
Properties=species:S:1:pos:R:3 frame=T 8=T |=T Written=T by=T MDAnalysis=T XYZWriter=T (release=T 2.4.3)=T pbc="F F F"
H      -12.57970000       9.73435000     -11.81094000
O      -13.48911000      10.07324000     -11.90784000
H      -13.74947000       9.72983000     -12.78864000
H      -14.49262000       8.23593000     -14.70502000
O      -14.77905000       8.75785000     -13.92094000
H      -14.89935000       8.13369000     -13.20837000
