6
Properties=species:S:1:pos:R:3 frame=T 24=T |=T Written=T by=T MDAnalysis=T XYZWriter=T (release=T 2.4.3)=T pbc="F F F"
H        8.96422000      -7.04017000     -17.06936000
O        8.50127000      -7.85053000     -16.78533000
H        7.88794000      -8.00219000     -17.53321000
H        7.08388000      -7.10149000     -13.89381000
O        7.41485000      -6.45426000     -14.52884000
H        7.71100000      -6.96086000     -15.30657000
