6
Properties=species:S:1:pos:R:3 frame=T 16=T |=T Written=T by=T MDAnalysis=T XYZWriter=T (release=T 2.4.3)=T pbc="F F F"
H       16.01998000      -4.42007000     -15.28709000
O       15.55590000      -4.39826000     -16.13122000
H       15.89997000      -3.57303000     -16.51157000
H       13.81337000      -3.83183000     -16.46806000
O       12.87041000      -3.74898000     -16.35142000
H       12.62131000      -3.91641000     -17.23915000
