6
Properties=species:S:1:pos:R:3 frame=T 32=T |=T Written=T by=T MDAnalysis=T XYZWriter=T (release=T 2.4.3)=T pbc="F F F"
H       -1.58723000      14.33054000       3.70433000
O       -2.50513000      14.25010000       4.00453000
H       -2.44919000      14.73998000       4.84244000
H        0.26126000      13.90338000       3.10987000
O       -0.27754000      14.26577000       2.39243000
H        0.28372000      14.93972000       1.99160000
