6
Properties=species:S:1:pos:R:3 frame=T 7=T |=T Written=T by=T MDAnalysis=T XYZWriter=T (release=T 2.4.3)=T pbc="F F F"
H        2.74169000      17.27175000       5.34842000
O        2.54173000      17.48774000       4.44666000
H        2.83687000      18.36260000       4.30245000
H        2.33997000      14.68623000       3.70495000
O        2.51411000      15.18621000       2.92977000
H        2.56558000      16.07137000       3.27480000
