6
Properties=species:S:1:pos:R:3 frame=T 43=T |=T Written=T by=T MDAnalysis=T XYZWriter=T (release=T 2.4.3)=T pbc="F F F"
H       -5.72421000      13.96928000      14.27570000
O       -5.74076000      13.84190000      15.22153000
H       -6.13027000      12.99270000      15.32232000
H       -2.76535000      12.89294000      15.73450000
O       -3.25234000      13.41542000      16.38062000
H       -4.05889000      13.58412000      15.90974000
