6
Properties=species:S:1:pos:R:3 frame=T 35=T |=T Written=T by=T MDAnalysis=T XYZWriter=T (release=T 2.4.3)=T pbc="F F F"
H       -6.56374000     -17.30887000       0.95576000
O       -6.85517000     -16.88847000       1.76943000
H       -6.97148000     -17.65878000       2.33076000
H       -7.63515000     -14.63239000       1.67164000
O       -7.99851000     -13.97920000       2.29219000
H       -8.23265000     -14.47854000       3.08350000
