6
Properties=species:S:1:pos:R:3 frame=T 9=T |=T Written=T by=T MDAnalysis=T XYZWriter=T (release=T 2.4.3)=T pbc="F F F"
H       -9.79088000      18.47931000      -9.35083000
O       -9.60346000      17.55959000      -9.08561000
H      -10.17453000      17.05437000      -9.65961000
H      -12.52262000      18.55419000      -8.90688000
O      -12.43892000      17.60144000      -9.00940000
H      -11.54208000      17.32874000      -8.77004000
