6
Properties=species:S:1:pos:R:3 frame=T 52=T |=T Written=T by=T MDAnalysis=T XYZWriter=T (release=T 2.4.3)=T pbc="F F F"
H      -10.54119000      -8.87065000     -11.19598000
O      -10.22896000      -8.82107000     -10.27535000
H       -9.70843000      -9.63423000     -10.16486000
H       -8.07001000      -8.08494000     -11.79614000
O       -8.16775000      -7.38344000     -11.11799000
H       -8.87854000      -7.65562000     -10.47486000
