6
Properties=species:S:1:pos:R:3 frame=T 30=T |=T Written=T by=T MDAnalysis=T XYZWriter=T (release=T 2.4.3)=T pbc="F F F"
H      -17.31429000      -5.24807000      11.42746000
O      -18.00108000      -5.92609000      11.38445000
H      -17.67547000      -6.49795000      10.68158000
H      -17.68003000      -6.85698000      13.66551000
O      -16.79854000      -7.06246000      14.01414000
H      -17.03735000      -7.50976000      14.84680000
