6
Properties=species:S:1:pos:R:3 frame=T 2=T |=T Written=T by=T MDAnalysis=T XYZWriter=T (release=T 2.4.3)=T pbc="F F F"
H       -6.76246000     -15.50810000     -15.80410000
O       -6.11764000     -14.79018000     -15.54032000
H       -6.26105000     -14.15779000     -16.27634000
H       -4.56718000     -13.14945000     -17.69254000
O       -5.33551000     -12.69440000     -17.32635000
H       -5.07635000     -12.55031000     -16.38130000
