6
Properties=species:S:1:pos:R:3 frame=T 16=T |=T Written=T by=T MDAnalysis=T XYZWriter=T (release=T 2.4.3)=T pbc="F F F"
H        3.30221000      11.84906000      16.81492000
O        4.16822000      12.28854000      16.84579000
H        4.12691000      12.95796000      17.53721000
H        4.64500000      10.82670000      18.14844000
O        4.47619000      10.59826000      19.08099000
H        5.06801000       9.86578000      19.18211000
