6
Properties=species:S:1:pos:R:3 frame=T 46=T |=T Written=T by=T MDAnalysis=T XYZWriter=T (release=T 2.4.3)=T pbc="F F F"
H       -0.32753000      -5.85303000      -3.04300000
O       -0.16119000      -6.60384000      -2.41391000
H       -1.05491000      -6.71363000      -2.05028000
H        2.36047000      -6.54554000      -3.90353000
O        1.83416000      -7.24920000      -4.35544000
H        0.99562000      -7.28095000      -3.86674000
