6
Properties=species:S:1:pos:R:3 frame=T 3=T |=T Written=T by=T MDAnalysis=T XYZWriter=T (release=T 2.4.3)=T pbc="F F F"
H      -10.75607000     -10.53303000       8.28187000
O      -11.50413000     -11.11712000       8.07682000
H      -11.21357000     -12.00361000       8.37815000
H      -13.22472000     -10.84845000       8.63021000
O      -14.13944000     -10.79894000       8.82800000
H      -14.26466000     -11.49710000       9.48910000
