6
Properties=species:S:1:pos:R:3 frame=T 6=T |=T Written=T by=T MDAnalysis=T XYZWriter=T (release=T 2.4.3)=T pbc="F F F"
H       -3.64240000     -13.59694000     -11.47104000
O       -4.48567000     -13.37589000     -11.00911000
H       -4.72070000     -14.22559000     -10.63056000
H       -6.58695000     -14.39836000      -9.15531000
O       -6.56612000     -15.00854000      -9.91106000
H       -6.80130000     -14.48256000     -10.69055000
