6
Properties=species:S:1:pos:R:3 frame=T 36=T |=T Written=T by=T MDAnalysis=T XYZWriter=T (release=T 2.4.3)=T pbc="F F F"
H       -8.19719000      16.14405000      -7.44094000
O       -8.90038000      16.72284000      -7.09225000
H       -9.54977000      16.07787000      -6.81260000
H      -10.40201000      13.99808000      -5.85068000
O      -10.46472000      14.43471000      -6.69976000
H      -11.30554000      14.83567000      -6.72727000
