6
Properties=species:S:1:pos:R:3 frame=T 47=T |=T Written=T by=T MDAnalysis=T XYZWriter=T (release=T 2.4.3)=T pbc="F F F"
H       -0.22405000      16.48074000      -8.49601000
O        0.43417000      17.05648000      -8.91248000
H        0.90056000      17.45378000      -8.17159000
H        3.47794000      16.76693000      -9.87516000
O        2.71202000      16.41945000     -10.33801000
H        2.02124000      16.60921000      -9.65672000
