6
Properties=species:S:1:pos:R:3 frame=T 45=T |=T Written=T by=T MDAnalysis=T XYZWriter=T (release=T 2.4.3)=T pbc="F F F"
H      -13.39917000       4.59332000       8.56994000
O      -13.85857000       4.91222000       9.37057000
H      -14.01816000       4.05352000       9.84400000
H      -11.96518000       5.19483000       6.68729000
O      -12.73019000       4.63209000       6.71956000
H      -13.43330000       5.28234000       6.62534000
