6
Properties=species:S:1:pos:R:3 frame=T 14=T |=T Written=T by=T MDAnalysis=T XYZWriter=T (release=T 2.4.3)=T pbc="F F F"
H       16.85075000      -5.72869000       9.90714000
O       17.51503000      -5.96585000       9.24470000
H       17.48513000      -5.21264000       8.66721000
H       15.47369000      -6.64459000      11.51300000
O       16.01318000      -5.86828000      11.53515000
H       16.72947000      -6.15495000      12.10889000
