6
Properties=species:S:1:pos:R:3 frame=T 44=T |=T Written=T by=T MDAnalysis=T XYZWriter=T (release=T 2.4.3)=T pbc="F F F"
H       12.45167000      -8.39044000     -10.02100000
O       13.13543000      -9.06087000     -10.10917000
H       12.68399000      -9.89243000     -10.35517000
H       11.93770000     -12.00952000     -11.50154000
O       12.08053000     -11.05560000     -11.69845000
H       11.19609000     -10.70843000     -11.55962000
