6
Properties=species:S:1:pos:R:3 frame=T 30=T |=T Written=T by=T MDAnalysis=T XYZWriter=T (release=T 2.4.3)=T pbc="F F F"
H      -13.65261000       4.13177000     -18.42473000
O      -14.12670000       3.32430000     -18.17884000
H      -15.00505000       3.63051000     -17.97091000
H      -16.41419000       1.73095000     -18.56649000
O      -16.76996000       2.41613000     -17.97299000
H      -16.41152000       2.22183000     -17.09919000
