6
Properties=species:S:1:pos:R:3 frame=T 42=T |=T Written=T by=T MDAnalysis=T XYZWriter=T (release=T 2.4.3)=T pbc="F F F"
H        6.14522000       6.54713000     -18.83894000
O        5.66258000       7.23925000     -18.38208000
H        6.30870000       7.50483000     -17.69425000
H        8.34058000       8.24414000     -16.67743000
O        7.42894000       8.29821000     -16.37428000
H        7.32101000       7.64948000     -15.69677000
