6
Properties=species:S:1:pos:R:3 frame=T 7=T |=T Written=T by=T MDAnalysis=T XYZWriter=T (release=T 2.4.3)=T pbc="F F F"
H       -2.30369000      16.18046000       6.88877000
O       -1.94937000      15.37534000       6.52656000
H       -1.05046000      15.41850000       6.84557000
H       -3.24694000      18.18910000       7.88398000
O       -3.51449000      17.63059000       7.15240000
H       -4.22033000      17.13385000       7.56711000
