6
Properties=species:S:1:pos:R:3 frame=T 19=T |=T Written=T by=T MDAnalysis=T XYZWriter=T (release=T 2.4.3)=T pbc="F F F"
H      -14.98000000     -15.86109000       4.98701000
O      -15.38411000     -16.44251000       4.32509000
H      -15.82784000     -17.09670000       4.88136000
H      -16.66348000     -16.45324000       2.89529000
O      -17.49339000     -16.77313000       2.54754000
H      -17.36563000     -17.72926000       2.49687000
