6
Properties=species:S:1:pos:R:3 frame=T 5=T |=T Written=T by=T MDAnalysis=T XYZWriter=T (release=T 2.4.3)=T pbc="F F F"
H      -10.19652000       2.08832000      -0.49683000
O       -9.76535000       2.97114000      -0.44139000
H       -9.47446000       3.06134000      -1.35503000
H      -11.12079000       0.29528000       0.53392000
O      -11.49069000       0.91105000      -0.12107000
H      -12.20058000       1.33685000       0.34708000
