6
Properties=species:S:1:pos:R:3 frame=T 38=T |=T Written=T by=T MDAnalysis=T XYZWriter=T (release=T 2.4.3)=T pbc="F F F"
H        1.40481000      -6.51467000      -7.38606000
O        1.58395000      -5.61433000      -7.12522000
H        2.17842000      -5.27142000      -7.80369000
H        2.30777000      -6.14706000      -5.37807000
O        2.76073000      -6.53203000      -4.61898000
H        2.43051000      -7.41997000      -4.62735000
