6
Properties=species:S:1:pos:R:3 frame=T 0=T |=T Written=T by=T MDAnalysis=T XYZWriter=T (release=T 2.4.3)=T pbc="F F F"
H        6.75006000     -12.09679000     -11.69554000
O        7.18767000     -12.64878000     -11.01743000
H        7.76352000     -13.20785000     -11.52957000
H        6.07461000     -10.46817000     -13.49992000
O        5.93959000     -10.93956000     -12.67527000
H        5.05403000     -11.32017000     -12.72977000
