6
Properties=species:S:1:pos:R:3 frame=T 18=T |=T Written=T by=T MDAnalysis=T XYZWriter=T (release=T 2.4.3)=T pbc="F F F"
H        1.74518000     -12.42451000      14.10933000
O        1.67275000     -12.29186000      15.03703000
H        2.40216000     -12.86026000      15.37351000
H       -0.82830000     -13.87053000      16.55228000
O       -0.35614000     -13.96747000      15.73717000
H        0.28727000     -13.25625000      15.72038000
