6
Properties=species:S:1:pos:R:3 frame=T 3=T |=T Written=T by=T MDAnalysis=T XYZWriter=T (release=T 2.4.3)=T pbc="F F F"
H       -1.99567000       7.14332000     -16.05579000
O       -1.80475000       6.26480000     -15.68920000
H       -2.17039000       5.65222000     -16.34784000
H       -3.16339000       4.13282000     -13.68394000
O       -2.36112000       4.69474000     -13.56917000
H       -2.25649000       5.07087000     -14.44431000
