6
Properties=species:S:1:pos:R:3 frame=T 32=T |=T Written=T by=T MDAnalysis=T XYZWriter=T (release=T 2.4.3)=T pbc="F F F"
H      -16.71021000      16.83218000     -11.53478000
O      -17.26687000      16.80143000     -10.71333000
H      -17.29499000      15.85859000     -10.53224000
H      -14.42485000      18.37662000      -9.56736000
O      -14.72994000      17.49924000      -9.82370000
H      -15.71295000      17.58577000      -9.89322000
