6
Properties=species:S:1:pos:R:3 frame=T 45=T |=T Written=T by=T MDAnalysis=T XYZWriter=T (release=T 2.4.3)=T pbc="F F F"
H       10.13865000       9.48243000      12.09099000
O       10.97440000       9.07970000      12.45929000
H       11.16505000       9.64885000      13.24966000
H       10.63519000       6.14139000      13.65580000
O        9.94944000       6.82405000      13.80055000
H       10.22571000       7.46472000      13.11237000
