6
Properties=species:S:1:pos:R:3 frame=T 52=T |=T Written=T by=T MDAnalysis=T XYZWriter=T (release=T 2.4.3)=T pbc="F F F"
H       16.56353000       6.95697000     -14.89188000
O       17.20101000       7.44336000     -14.35240000
H       17.82634000       6.76008000     -14.07970000
H       16.80614000       8.93643000     -15.59562000
O       16.72380000       9.44079000     -16.41912000
H       16.50455000       8.77680000     -17.06675000
