6
Properties=species:S:1:pos:R:3 frame=T 26=T |=T Written=T by=T MDAnalysis=T XYZWriter=T (release=T 2.4.3)=T pbc="F F F"
H        9.96849000      -3.56515000      16.68028000
O       10.61731000      -3.94802000      17.28883000
H       11.41018000      -3.39554000      17.06277000
H       12.94754000      -2.39253000      16.42148000
O       13.32119000      -3.05570000      17.03596000
H       13.80852000      -3.67541000      16.53127000
