6
Properties=species:S:1:pos:R:3 frame=T 18=T |=T Written=T by=T MDAnalysis=T XYZWriter=T (release=T 2.4.3)=T pbc="F F F"
H      -13.23332000     -12.09867000     -16.26206000
O      -13.97095000     -12.54831000     -16.67599000
H      -13.74218000     -13.48040000     -16.73210000
H      -16.23188000     -10.85319000     -15.09334000
O      -15.96599000     -11.75523000     -14.94480000
H      -15.21356000     -11.84770000     -15.54543000
