6
Properties=species:S:1:pos:R:3 frame=T 48=T |=T Written=T by=T MDAnalysis=T XYZWriter=T (release=T 2.4.3)=T pbc="F F F"
H        9.49942000      -3.00404000       9.39779000
O        8.55972000      -2.83445000       9.58667000
H        8.27868000      -3.69306000       9.91784000
H       12.05740000      -3.55429000       8.58166000
O       11.19867000      -3.70917000       9.00248000
H       10.92125000      -4.54060000       8.63092000
