6
Properties=species:S:1:pos:R:3 frame=T 25=T |=T Written=T by=T MDAnalysis=T XYZWriter=T (release=T 2.4.3)=T pbc="F F F"
H       18.63125000     -14.77133000      11.27061000
O       18.03875000     -14.91440000      12.02524000
H       17.38584000     -15.47755000      11.64520000
H       16.78201000     -16.93945000      10.15928000
O       16.14103000     -16.43310000      10.70847000
H       15.42241000     -16.25707000      10.09772000
