6
Properties=species:S:1:pos:R:3 frame=T 5=T |=T Written=T by=T MDAnalysis=T XYZWriter=T (release=T 2.4.3)=T pbc="F F F"
H       -1.20781000     -12.40421000       9.42154000
O       -1.59406000     -11.56442000       9.13987000
H       -1.03908000     -10.95514000       9.60265000
H       -0.14981000      -9.26177000      10.89370000
O        0.24798000      -9.99701000      10.42374000
H        1.02431000      -9.62776000      10.04016000
