6
Properties=species:S:1:pos:R:3 frame=T 32=T |=T Written=T by=T MDAnalysis=T XYZWriter=T (release=T 2.4.3)=T pbc="F F F"
H       17.31723000      -0.87168000      15.48626000
O       17.78339000      -0.09703000      15.86221000
H       17.10311000       0.48336000      16.19019000
H       16.75355000      -2.70228000      16.10583000
O       16.24919000      -2.35197000      15.36123000
H       15.93729000      -3.13260000      14.88402000
