6
Properties=species:S:1:pos:R:3 frame=T 21=T |=T Written=T by=T MDAnalysis=T XYZWriter=T (release=T 2.4.3)=T pbc="F F F"
H       17.98310000      -8.85598000      12.97869000
O       17.82281000      -7.91815000      12.88190000
H       17.19390000      -7.75091000      13.62293000
H       18.70695000     -10.83389000      12.10987000
O       18.37679000     -10.62849000      13.02522000
H       19.04914000     -10.88577000      13.63863000
