6
Properties=species:S:1:pos:R:3 frame=T 43=T |=T Written=T by=T MDAnalysis=T XYZWriter=T (release=T 2.4.3)=T pbc="F F F"
H        4.11025000      19.04941000       7.20529000
O        4.95541000      18.64424000       6.96061000
H        4.67295000      18.04817000       6.25249000
H        5.00373000      17.76896000       4.01817000
O        5.46605000      17.27243000       4.67729000
H        4.85970000      16.50578000       4.77334000
