6
Properties=species:S:1:pos:R:3 frame=T 27=T |=T Written=T by=T MDAnalysis=T XYZWriter=T (release=T 2.4.3)=T pbc="F F F"
H       -9.98516000      10.40245000     -17.21425000
O       -9.60122000      10.99738000     -16.55952000
H      -10.24364000      11.70682000     -16.54741000
H      -10.45347000       9.23857000     -13.79078000
O      -11.09361000       9.81527000     -14.32044000
H      -10.52035000      10.06646000     -15.05805000
