6
Properties=species:S:1:pos:R:3 frame=T 1=T |=T Written=T by=T MDAnalysis=T XYZWriter=T (release=T 2.4.3)=T pbc="F F F"
H       10.75438000      -7.82400000      -5.56335000
O       11.18917000      -8.09239000      -6.37687000
H       10.50483000      -7.90497000      -6.99084000
H       13.41583000      -5.83803000      -7.33549000
O       12.48532000      -5.60807000      -7.04817000
H       12.06790000      -6.47072000      -6.80308000
