6
Properties=species:S:1:pos:R:3 frame=T 26=T |=T Written=T by=T MDAnalysis=T XYZWriter=T (release=T 2.4.3)=T pbc="F F F"
H        7.65563000      -6.95499000      -3.14947000
O        8.27025000      -6.51793000      -2.58125000
H        8.03511000      -6.83613000      -1.72568000
H        7.20997000      -6.19742000      -5.30185000
O        7.72690000      -7.00813000      -5.22502000
H        8.60799000      -6.62897000      -5.30924000
