6
Properties=species:S:1:pos:R:3 frame=T 52=T |=T Written=T by=T MDAnalysis=T XYZWriter=T (release=T 2.4.3)=T pbc="F F F"
H      -10.40833000     -10.81204000      14.88597000
O      -11.05287000     -10.12159000      14.79862000
H      -11.81952000     -10.47964000      15.29432000
H      -14.42317000     -11.49894000      15.33230000
O      -13.64438000     -11.51453000      15.90507000
H      -13.99529000     -11.85547000      16.69053000
