6
Properties=species:S:1:pos:R:3 frame=T 25=T |=T Written=T by=T MDAnalysis=T XYZWriter=T (release=T 2.4.3)=T pbc="F F F"
H       12.96613000       3.35703000     -11.53558000
O       13.15269000       4.18239000     -11.93867000
H       12.67139000       4.79749000     -11.40601000
H       13.96461000       6.14911000     -12.80831000
O       14.39191000       7.02861000     -12.84423000
H       14.09707000       7.42548000     -13.66500000
