6
Properties=species:S:1:pos:R:3 frame=T 29=T |=T Written=T by=T MDAnalysis=T XYZWriter=T (release=T 2.4.3)=T pbc="F F F"
H      -17.76170000       3.62962000     -14.25112000
O      -17.25427000       2.99312000     -13.68826000
H      -16.39887000       3.43282000     -13.50647000
H      -15.62485000       5.46967000     -14.06997000
O      -15.69449000       5.06983000     -14.93649000
H      -16.56480000       5.34976000     -15.25525000
