6
Properties=species:S:1:pos:R:3 frame=T 41=T |=T Written=T by=T MDAnalysis=T XYZWriter=T (release=T 2.4.3)=T pbc="F F F"
H       -0.63118000      17.95400000      11.11761000
O       -0.61905000      18.77814000      10.61254000
H       -1.50235000      18.82649000      10.24390000
H       -0.68593000      18.90696000      13.60622000
O       -0.21617000      18.15987000      14.05304000
H       -0.72640000      17.36746000      13.94076000
