6
Properties=species:S:1:pos:R:3 frame=T 30=T |=T Written=T by=T MDAnalysis=T XYZWriter=T (release=T 2.4.3)=T pbc="F F F"
H       -5.10175000      -5.76151000      14.24526000
O       -4.29662000      -5.60769000      14.71802000
H       -4.61454000      -4.95186000      15.35662000
H       -5.15159000      -3.07223000      16.03695000
O       -5.16705000      -3.85688000      16.60959000
H       -5.86308000      -4.40585000      16.28237000
