6
Properties=species:S:1:pos:R:3 frame=T 50=T |=T Written=T by=T MDAnalysis=T XYZWriter=T (release=T 2.4.3)=T pbc="F F F"
H        2.84392000      13.11688000      16.08929000
O        3.19590000      12.36794000      16.59287000
H        3.90496000      12.04803000      16.05369000
H        2.16829000      15.13725000      14.98333000
O        1.94352000      14.20902000      15.10746000
H        1.70136000      13.86832000      14.23062000
