6
Properties=species:S:1:pos:R:3 frame=T 37=T |=T Written=T by=T MDAnalysis=T XYZWriter=T (release=T 2.4.3)=T pbc="F F F"
H       -9.55960000      -7.91645000      10.80072000
O       -9.39794000      -8.35284000      11.67007000
H      -10.24149000      -8.21912000      12.13143000
H       -9.49227000      -6.86957000       8.62876000
O       -9.50521000      -7.72097000       9.07038000
H      -10.41586000      -8.04764000       8.89378000
