6
Properties=species:S:1:pos:R:3 frame=T 51=T |=T Written=T by=T MDAnalysis=T XYZWriter=T (release=T 2.4.3)=T pbc="F F F"
H       17.25028000      -0.37731000     -15.34180000
O       17.73607000       0.31439000     -15.80286000
H       17.18073000       1.08355000     -15.61493000
H       16.61249000      -2.38578000     -13.95892000
O       17.36455000      -1.87075000     -14.26788000
H       17.60588000      -1.29241000     -13.52194000
