6
Properties=species:S:1:pos:R:3 frame=T 36=T |=T Written=T by=T MDAnalysis=T XYZWriter=T (release=T 2.4.3)=T pbc="F F F"
H       18.14755000      -4.36936000      12.94137000
O       17.55764000      -4.38214000      13.71092000
H       17.95059000      -5.04115000      14.29955000
H       18.76645000      -1.46781000      14.93136000
O       17.92854000      -1.96073000      14.74639000
H       18.19282000      -2.61916000      14.05138000
