6
Properties=species:S:1:pos:R:3 frame=T 23=T |=T Written=T by=T MDAnalysis=T XYZWriter=T (release=T 2.4.3)=T pbc="F F F"
H        4.06443000       1.74557000       6.31122000
O        4.09771000       0.81498000       6.11908000
H        4.96424000       0.72581000       5.69895000
H        1.99563000       1.07587000       8.24704000
O        1.61636000       0.79205000       7.39989000
H        2.36028000       0.83864000       6.78088000
