6
Properties=species:S:1:pos:R:3 frame=T 21=T |=T Written=T by=T MDAnalysis=T XYZWriter=T (release=T 2.4.3)=T pbc="F F F"
H      -17.53885000      -6.19478000      10.69876000
O      -17.30708000      -5.98748000       9.80216000
H      -18.07895000      -6.27939000       9.27538000
H      -17.61711000      -6.48191000      13.15843000
O      -17.74603000      -5.72748000      12.54005000
H      -16.89169000      -5.20217000      12.38735000
