6
Properties=species:S:1:pos:R:3 frame=T 51=T |=T Written=T by=T MDAnalysis=T XYZWriter=T (release=T 2.4.3)=T pbc="F F F"
H        7.61464000       5.69355000       6.81314000
O        7.49775000       6.55425000       6.39892000
H        7.52435000       6.45865000       5.43653000
H       11.00699000       6.87529000       6.13989000
O       10.15791000       7.00691000       5.72236000
H        9.52482000       6.58372000       6.33349000
