6
Properties=species:S:1:pos:R:3 frame=T 51=T |=T Written=T by=T MDAnalysis=T XYZWriter=T (release=T 2.4.3)=T pbc="F F F"
H       -9.36658000       2.24932000      -2.01957000
O       -9.00501000       1.33062000      -1.93212000
H       -8.18017000       1.50061000      -1.46720000
H      -11.11057000       2.45922000      -3.04684000
O      -10.86855000       3.35488000      -2.65529000
H      -10.46567000       3.82839000      -3.38585000
