6
Properties=species:S:1:pos:R:3 frame=T 20=T |=T Written=T by=T MDAnalysis=T XYZWriter=T (release=T 2.4.3)=T pbc="F F F"
H        0.60554000     -13.14774000       2.62729000
O        1.19835000     -12.82641000       3.28480000
H        1.87123000     -13.54065000       3.30776000
H        0.58514000     -13.24174000       5.02167000
O        0.16750000     -13.13787000       5.86779000
H       -0.56029000     -13.75906000       5.81434000
