6
Properties=species:S:1:pos:R:3 frame=T 52=T |=T Written=T by=T MDAnalysis=T XYZWriter=T (release=T 2.4.3)=T pbc="F F F"
H       -5.50560000      -9.48079000       9.87456000
O       -5.35410000      -9.47997000      10.82833000
H       -4.99124000      -8.59453000      11.02345000
H       -5.44116000      -9.60965000       7.90042000
O       -5.57203000      -8.72807000       8.21034000
H       -5.84328000      -8.25451000       7.37473000
