6
Properties=species:S:1:pos:R:3 frame=T 14=T |=T Written=T by=T MDAnalysis=T XYZWriter=T (release=T 2.4.3)=T pbc="F F F"
H        0.83183000       2.03678000     -12.80370000
O        0.62739000       2.82599000     -12.29241000
H        0.57229000       3.51492000     -12.94544000
H       -0.43483000       5.13305000     -10.82156000
O       -1.03871000       4.39702000     -10.65318000
H       -0.68728000       3.69458000     -11.20456000
