6
Properties=species:S:1:pos:R:3 frame=T 16=T |=T Written=T by=T MDAnalysis=T XYZWriter=T (release=T 2.4.3)=T pbc="F F F"
H       16.14503000       4.68378000     -10.63662000
O       16.94022000       5.24230000     -10.66811000
H       16.96915000       5.62266000      -9.78146000
H       13.85168000       3.66489000     -11.48984000
O       14.54399000       3.85482000     -10.86131000
H       14.11620000       4.38524000     -10.17720000
