6
Properties=species:S:1:pos:R:3 frame=T 22=T |=T Written=T by=T MDAnalysis=T XYZWriter=T (release=T 2.4.3)=T pbc="F F F"
H      -12.13655000      15.36890000     -14.39587000
O      -12.76048000      15.33133000     -13.68881000
H      -13.63294000      15.38241000     -14.13340000
H      -15.35514000      14.36483000     -15.05363000
O      -15.25655000      15.22312000     -14.63090000
H      -15.77636000      15.83320000     -15.19144000
