6
Properties=species:S:1:pos:R:3 frame=T 30=T |=T Written=T by=T MDAnalysis=T XYZWriter=T (release=T 2.4.3)=T pbc="F F F"
H      -16.10416000       7.76877000       6.13852000
O      -15.17246000       7.64102000       5.89259000
H      -14.71425000       7.61398000       6.74856000
H      -15.93582000       5.98397000       5.31580000
O      -15.85233000       5.16796000       4.80095000
H      -16.67571000       4.67527000       5.03518000
