6
Properties=species:S:1:pos:R:3 frame=T 6=T |=T Written=T by=T MDAnalysis=T XYZWriter=T (release=T 2.4.3)=T pbc="F F F"
H      -14.12912000      18.51295000      15.53161000
O      -13.89073000      17.58864000      15.62490000
H      -13.45026000      17.53671000      16.48388000
H      -17.35825000      17.17169000      15.96694000
O      -16.64614000      17.68954000      16.35785000
H      -15.84319000      17.36227000      15.92300000
