6
Properties=species:S:1:pos:R:3 frame=T 34=T |=T Written=T by=T MDAnalysis=T XYZWriter=T (release=T 2.4.3)=T pbc="F F F"
H        7.26636000      -1.58112000       0.03784000
O        6.50631000      -1.23206000      -0.42752000
H        6.72735000      -0.27760000      -0.40393000
H        5.18720000      -1.76829000       0.79317000
O        4.69520000      -2.03164000       1.56832000
H        4.26766000      -2.80716000       1.22666000
