6
Properties=species:S:1:pos:R:3 frame=T 52=T |=T Written=T by=T MDAnalysis=T XYZWriter=T (release=T 2.4.3)=T pbc="F F F"
H        3.71933000      -5.38268000     -15.99423000
O        4.53487000      -4.84105000     -16.09620000
H        4.62437000      -4.44351000     -15.22006000
H        5.97555000      -3.01516000     -14.04388000
O        5.95197000      -3.99908000     -13.96940000
H        5.35745000      -4.11574000     -13.22123000
