6
Properties=species:S:1:pos:R:3 frame=T 41=T |=T Written=T by=T MDAnalysis=T XYZWriter=T (release=T 2.4.3)=T pbc="F F F"
H       11.22884000      -5.46839000     -19.30390000
O       11.49237000      -4.78686000     -18.66153000
H       11.41679000      -5.22122000     -17.77280000
H       10.45603000      -5.90162000     -15.70770000
O       10.73600000      -6.38388000     -16.50440000
H       11.52211000      -6.84472000     -16.18422000
