6
Properties=species:S:1:pos:R:3 frame=T 47=T |=T Written=T by=T MDAnalysis=T XYZWriter=T (release=T 2.4.3)=T pbc="F F F"
H       16.33852000       9.99160000     -17.53271000
O       16.40284000      10.94294000     -17.75253000
H       16.59738000      10.99661000     -18.72076000
H       17.19567000       8.12666000     -17.55450000
O       16.43966000       8.27130000     -16.97966000
H       15.81259000       7.55391000     -17.22386000
