6
Properties=species:S:1:pos:R:3 frame=T 1=T |=T Written=T by=T MDAnalysis=T XYZWriter=T (release=T 2.4.3)=T pbc="F F F"
H        2.81119000       7.07723000       7.90628000
O        2.88713000       7.79475000       8.52892000
H        3.75681000       7.61965000       8.84895000
H        2.87206000       9.37072000       7.49899000
O        2.88011000      10.32766000       7.52178000
H        3.78080000      10.55839000       7.33210000
