6
Properties=species:S:1:pos:R:3 frame=T 30=T |=T Written=T by=T MDAnalysis=T XYZWriter=T (release=T 2.4.3)=T pbc="F F F"
H       -6.79728000      -2.27069000      -9.42494000
O       -7.49297000      -2.25804000      -8.75550000
H       -7.38195000      -3.08036000      -8.22030000
H       -9.16841000      -2.14921000      -9.32435000
O      -10.08781000      -2.10196000      -9.62045000
H      -10.59281000      -2.14477000      -8.80529000
