6
Properties=species:S:1:pos:R:3 frame=T 10=T |=T Written=T by=T MDAnalysis=T XYZWriter=T (release=T 2.4.3)=T pbc="F F F"
H      -15.95521000      11.76215000      16.19249000
O      -15.42198000      11.73896000      16.98580000
H      -15.15911000      12.65623000      17.02020000
H      -13.01242000      10.05195000      15.70837000
O      -13.64323000       9.75373000      16.38090000
H      -14.08762000      10.53508000      16.69556000
