6
Properties=species:S:1:pos:R:3 frame=T 53=T |=T Written=T by=T MDAnalysis=T XYZWriter=T (release=T 2.4.3)=T pbc="F F F"
H      -16.07257000     -10.09805000       8.84402000
O      -16.47307000     -10.36030000       9.67092000
H      -17.03830000      -9.61148000       9.83514000
H      -14.09012000     -11.70122000      10.91153000
O      -14.73297000     -11.39719000      11.55995000
H      -15.33065000     -10.92763000      10.97911000
