6
Properties=species:S:1:pos:R:3 frame=T 35=T |=T Written=T by=T MDAnalysis=T XYZWriter=T (release=T 2.4.3)=T pbc="F F F"
H       -0.98133000      -5.78081000       9.83663000
O       -0.81208000      -6.35558000      10.60327000
H        0.11441000      -6.14354000      10.74701000
H       -0.42649000      -8.05244000       9.78445000
O        0.02603000      -8.82601000       9.39488000
H       -0.31959000      -9.57505000       9.88187000
