6
Properties=species:S:1:pos:R:3 frame=T 16=T |=T Written=T by=T MDAnalysis=T XYZWriter=T (release=T 2.4.3)=T pbc="F F F"
H       -9.30879000       7.88063000      14.03367000
O       -9.20760000       8.77053000      14.43729000
H      -10.08871000       9.17262000      14.28936000
H       -7.40684000       9.93990000      11.79584000
O       -8.34695000       9.91375000      11.95490000
H       -8.51412000       9.41798000      12.78078000
