6
Properties=species:S:1:pos:R:3 frame=T 32=T |=T Written=T by=T MDAnalysis=T XYZWriter=T (release=T 2.4.3)=T pbc="F F F"
H       18.72434000     -17.10446000       7.72915000
O       17.96609000     -16.51469000       7.82137000
H       17.62024000     -16.52287000       6.91052000
H       16.56104000     -16.79488000       8.92793000
O       15.83953000     -16.89017000       9.55895000
H       15.10392000     -16.80536000       8.96998000
