6
Properties=species:S:1:pos:R:3 frame=T 29=T |=T Written=T by=T MDAnalysis=T XYZWriter=T (release=T 2.4.3)=T pbc="F F F"
H       11.49305000      18.10129000       9.05279000
O       11.61768000      17.96318000       8.10973000
H       11.64008000      17.00522000       8.00242000
H       14.92547000      18.49591000       7.78596000
O       14.38835000      17.69928000       7.94683000
H       13.52500000      17.93135000       7.61692000
