6
Properties=species:S:1:pos:R:3 frame=T 39=T |=T Written=T by=T MDAnalysis=T XYZWriter=T (release=T 2.4.3)=T pbc="F F F"
H       -2.65230000      -4.83542000     -16.91006000
O       -2.74278000      -3.91418000     -16.61841000
H       -3.64996000      -3.84958000     -16.25220000
H       -5.80692000      -4.21631000     -15.70265000
O       -5.10987000      -4.28083000     -15.05595000
H       -5.17929000      -3.46777000     -14.57973000
