6
Properties=species:S:1:pos:R:3 frame=T 35=T |=T Written=T by=T MDAnalysis=T XYZWriter=T (release=T 2.4.3)=T pbc="F F F"
H      -15.02596000       6.16163000       0.54960000
O      -14.94993000       6.79514000       1.28287000
H      -15.26609000       6.30365000       2.04922000
H      -14.20574000       6.85046000      -1.53457000
O      -14.96176000       6.26943000      -1.49058000
H      -14.62535000       5.37600000      -1.28157000
