6
Properties=species:S:1:pos:R:3 frame=T 15=T |=T Written=T by=T MDAnalysis=T XYZWriter=T (release=T 2.4.3)=T pbc="F F F"
H       -5.94049000       7.53220000      17.78994000
O       -6.76558000       7.99187000      17.63397000
H       -6.80245000       8.55999000      18.43904000
H       -3.59908000       6.36697000      17.81343000
O       -4.28814000       6.93223000      18.19544000
H       -3.79226000       7.74797000      18.43355000
