6
Properties=species:S:1:pos:R:3 frame=T 49=T |=T Written=T by=T MDAnalysis=T XYZWriter=T (release=T 2.4.3)=T pbc="F F F"
H      -18.34891000     -15.63044000     -19.28876000
O      -17.49054000     -15.47645000     -18.85616000
H      -17.58939000     -14.61369000     -18.42718000
H      -18.36637000     -12.54246000     -17.32836000
O      -17.57392000     -12.89352000     -17.74533000
H      -17.54620000     -12.43248000     -18.58599000
