6
Properties=species:S:1:pos:R:3 frame=T 10=T |=T Written=T by=T MDAnalysis=T XYZWriter=T (release=T 2.4.3)=T pbc="F F F"
H       -2.31316000      13.32135000     -14.34819000
O       -2.07546000      12.57169000     -13.77785000
H       -2.20098000      12.91612000     -12.87260000
H        1.27389000      12.35449000     -13.20192000
O        0.62765000      13.04748000     -13.24302000
H       -0.13752000      12.58026000     -13.61681000
