6
Properties=species:S:1:pos:R:3 frame=T 12=T |=T Written=T by=T MDAnalysis=T XYZWriter=T (release=T 2.4.3)=T pbc="F F F"
H       -5.16029000      -0.95392000     -12.28760000
O       -6.04188000      -1.37467000     -12.23323000
H       -6.59724000      -0.68708000     -11.86652000
H       -8.72979000      -0.66571000     -11.04020000
O       -8.30483000       0.02981000     -11.58880000
H       -7.96274000       0.68140000     -10.95813000
