6
Properties=species:S:1:pos:R:3 frame=T 25=T |=T Written=T by=T MDAnalysis=T XYZWriter=T (release=T 2.4.3)=T pbc="F F F"
H      -14.96156000       9.82429000      -3.50427000
O      -15.91101000       9.71397000      -3.70284000
H      -16.13133000       8.97757000      -3.10934000
H      -16.73757000       6.72202000      -2.96621000
O      -16.18908000       7.28296000      -2.39500000
H      -16.67503000       7.35326000      -1.57994000
